Warn : deprecated option: -p/--pipe. Use '-c "gdb_port pipe; log_output openocd.log"' instead.
Info : only one transport option; autoselect 'jtag'
adapter speed: 7500 kHz
Warn : Transport "jtag" was already selected
Warn : Using DEPRECATED interface driver 'ft2232'
Info : Consider using the 'ftdi' interface driver, with configuration files in interface/ftdi/...
Info : device: 6 "2232H"
Info : deviceID: 67330064
Info : SerialNumber: 2516330000deA
Info : Description: Digilent USB Device A
Info : max TCK change to: 30000 kHz
Info : clock speed 7500 kHz
Info : JTAG tap: arc-em.cpu tap/device found: 0x200444b1 (mfg: 0x258, part: 0x0044, ver: 0x2)
Info : JTAG tap: arc-em.cpu tap/device found: 0x200444b1 (mfg: 0x258, part: 0x0044, ver: 0x2)
target state: halted
Info : accepting 'gdb' connection from pipe
Error: FT_Write returned: io error
Error: couldn't write MPSSE commands to FT2232
Polling target arc-em.cpu failed, GDB will be halted. Polling again in 100ms
Warn : target arc-em.cpu is not halted
Error: FT_Write returned: io error
Error: couldn't write MPSSE commands to FT2232
Error: FT_Write returned: io error
Error: couldn't write MPSSE commands to FT2232
Error: FT_Write returned: io error
Error: couldn't write MPSSE commands to FT2232
Error: FT_Write returned: io error
Error: couldn't write MPSSE commands to FT2232
Error: FT_Write returned: io error
Error: couldn't write MPSSE commands to FT2232
Error: FT_Write returned: io error
Error: couldn't write MPSSE commands to FT2232
Error: FT_Write returned: io error
Error: couldn't write MPSSE commands to FT2232
Error: FT_Write returned: io error
Error: couldn't write MPSSE commands to FT2232
Error: FT_Write returned: io error
Error: couldn't write MPSSE commands to FT2232
Error: FT_Write returned: io error
Error: couldn't write MPSSE commands to FT2232
Error: FT_Write returned: io error
Error: couldn't write MPSSE commands to FT2232
Error: FT_Write returned: io error
Error: couldn't write MPSSE commands to FT2232
Error: FT_Write returned: io error
Error: couldn't write MPSSE commands to FT2232
Error: FT_Write returned: io error
Error: couldn't write MPSSE commands to FT2232
Error: FT_Write returned: io error
Error: couldn't write MPSSE commands to FT2232
Error: FT_Write returned: io error
Error: couldn't write MPSSE commands to FT2232
Error: FT_Write returned: io error
Error: couldn't write MPSSE commands to FT2232
Error: FT_Write returned: io error
Error: couldn't write MPSSE commands to FT2232
Error: FT_Write returned: io error
Error: couldn't write MPSSE commands to FT2232
Error: FT_Write returned: io error
Error: couldn't write MPSSE commands to FT2232
Error: FT_Write returned: io error
Error: couldn't write MPSSE commands to FT2232
Error: FT_Write returned: io error
Error: couldn't write MPSSE commands to FT2232
Error: FT_Write returned: io error
Error: couldn't write MPSSE commands to FT2232
Error: FT_Write returned: io error
Error: couldn't write MPSSE commands to FT2232
Error: FT_Write returned: io error
Error: couldn't write MPSSE commands to FT2232
Error: FT_Write returned: io error
Error: couldn't write MPSSE commands to FT2232
Error: FT_Write returned: io error
Error: couldn't write MPSSE commands to FT2232
Error: FT_Write returned: io error
Error: couldn't write MPSSE commands to FT2232
Error: FT_Write returned: io error
Error: couldn't write MPSSE commands to FT2232
Error: FT_Write returned: io error
Error: couldn't write MPSSE commands to FT2232
Error: FT_Write returned: io error
Error: couldn't write MPSSE commands to FT2232
Error: FT_Write returned: io error
Error: couldn't write MPSSE commands to FT2232
Error: FT_Write returned: io error
Error: couldn't write MPSSE commands to FT2232
Error: FT_Write returned: io error
Error: couldn't write MPSSE commands to FT2232
Error: FT_Write returned: io error
Error: couldn't write MPSSE commands to FT2232
Error: FT_Write returned: io error
Error: couldn't write MPSSE commands to FT2232
Error: FT_Write returned: io error
Error: couldn't write MPSSE commands to FT2232
Error: FT_Write returned: io error
Error: couldn't write MPSSE commands to FT2232
Error: FT_Write returned: io error
Error: couldn't write MPSSE commands to FT2232
Polling target arc-em.cpu failed, GDB will be halted. Polling again in 300ms
Error: FT_Write returned: io error
Error: couldn't write MPSSE commands to FT2232
Polling target arc-em.cpu failed, GDB will be halted. Polling again in 700ms
Error: FT_Write returned: io error
Error: couldn't write MPSSE commands to FT2232
Polling target arc-em.cpu failed, GDB will be halted. Polling again in 1500ms
Error: FT_Write returned: io error
Error: couldn't write MPSSE commands to FT2232
Polling target arc-em.cpu failed, GDB will be halted. Polling again in 3100ms
Error: FT_Write returned: io error
Error: couldn't write MPSSE commands to FT2232
Polling target arc-em.cpu failed, GDB will be halted. Polling again in 6300ms
Error: FT_Write returned: io error
Error: couldn't write MPSSE commands to FT2232
Polling target arc-em.cpu failed, GDB will be halted. Polling again in 6300ms
Error: FT_Write returned: io error
Error: couldn't write MPSSE commands to FT2232
Polling target arc-em.cpu failed, GDB will be halted. Polling again in 6300ms
Error: FT_Write returned: io error
Error: couldn't write MPSSE commands to FT2232
Polling target arc-em.cpu failed, GDB will be halted. Polling again in 6300ms
Error: FT_Write returned: io error
Error: couldn't write MPSSE commands to FT2232
Polling target arc-em.cpu failed, GDB will be halted. Polling again in 6300ms
Error: FT_Write returned: io error
Error: couldn't write MPSSE commands to FT2232
Polling target arc-em.cpu failed, GDB will be halted. Polling again in 6300ms
Error: FT_Write returned: io error
Error: couldn't write MPSSE commands to FT2232
Polling target arc-em.cpu failed, GDB will be halted. Polling again in 6300ms
Error: FT_Write returned: io error
Error: couldn't write MPSSE commands to FT2232
Polling target arc-em.cpu failed, GDB will be halted. Polling again in 6300ms
Error: FT_Write returned: io error
Error: couldn't write MPSSE commands to FT2232
Polling target arc-em.cpu failed, GDB will be halted. Polling again in 6300ms
Error: FT_Write returned: io error
Error: couldn't write MPSSE commands to FT2232
Polling target arc-em.cpu failed, GDB will be halted. Polling again in 6300ms
Error: FT_Write returned: io error
Error: couldn't write MPSSE commands to FT2232
Polling target arc-em.cpu failed, GDB will be halted. Polling again in 6300ms
Error: FT_Write returned: io error
Error: couldn't write MPSSE commands to FT2232
Polling target arc-em.cpu failed, GDB will be halted. Polling again in 6300ms
Error: FT_Write returned: io error
Error: couldn't write MPSSE commands to FT2232
Polling target arc-em.cpu failed, GDB will be halted. Polling again in 6300ms
Error: FT_Write returned: io error
Error: couldn't write MPSSE commands to FT2232
Polling target arc-em.cpu failed, GDB will be halted. Polling again in 6300ms
Error: FT_Write returned: io error
Error: couldn't write MPSSE commands to FT2232
Polling target arc-em.cpu failed, GDB will be halted. Polling again in 6300ms
Error: FT_Write returned: io error
Error: couldn't write MPSSE commands to FT2232
Polling target arc-em.cpu failed, GDB will be halted. Polling again in 6300ms
Error: FT_Write returned: io error
Error: couldn't write MPSSE commands to FT2232
Polling target arc-em.cpu failed, GDB will be halted. Polling again in 6300ms
Error: FT_Write returned: io error
Error: couldn't write MPSSE commands to FT2232
Polling target arc-em.cpu failed, GDB will be halted. Polling again in 6300ms
Error: FT_Write returned: io error
Error: couldn't write MPSSE commands to FT2232
Polling target arc-em.cpu failed, GDB will be halted. Polling again in 6300ms
Error: FT_Write returned: io error
Error: couldn't write MPSSE commands to FT2232
Polling target arc-em.cpu failed, GDB will be halted. Polling again in 6300ms
Error: FT_Write returned: io error
Error: couldn't write MPSSE commands to FT2232
Polling target arc-em.cpu failed, GDB will be halted. Polling again in 6300ms
Error: FT_Write returned: io error
Error: couldn't write MPSSE commands to FT2232
Polling target arc-em.cpu failed, GDB will be halted. Polling again in 6300ms
Error: FT_Write returned: io error
Error: couldn't write MPSSE commands to FT2232
Polling target arc-em.cpu failed, GDB will be halted. Polling again in 6300ms
Error: FT_Write returned: io error
Error: couldn't write MPSSE commands to FT2232
Polling target arc-em.cpu failed, GDB will be halted. Polling again in 6300ms
Error: FT_Write returned: io error
Error: couldn't write MPSSE commands to FT2232
Polling target arc-em.cpu failed, GDB will be halted. Polling again in 6300ms
Error: FT_Write returned: io error
Error: couldn't write MPSSE commands to FT2232
Polling target arc-em.cpu failed, GDB will be halted. Polling again in 6300ms
Error: FT_Write returned: io error
Error: couldn't write MPSSE commands to FT2232
Polling target arc-em.cpu failed, GDB will be halted. Polling again in 6300ms
Error: FT_Write returned: io error
Error: couldn't write MPSSE commands to FT2232
Polling target arc-em.cpu failed, GDB will be halted. Polling again in 6300ms
Error: FT_Write returned: io error
Error: couldn't write MPSSE commands to FT2232
Polling target arc-em.cpu failed, GDB will be halted. Polling again in 6300ms
Error: FT_Write returned: io error
Error: couldn't write MPSSE commands to FT2232
Polling target arc-em.cpu failed, GDB will be halted. Polling again in 6300ms
Error: FT_Write returned: io error
Error: couldn't write MPSSE commands to FT2232
Polling target arc-em.cpu failed, GDB will be halted. Polling again in 6300ms
Error: FT_Write returned: io error
Error: couldn't write MPSSE commands to FT2232
Polling target arc-em.cpu failed, GDB will be halted. Polling again in 6300ms
Error: FT_Write returned: io error
Error: couldn't write MPSSE commands to FT2232
Polling target arc-em.cpu failed, GDB will be halted. Polling again in 6300ms
Error: FT_Write returned: io error
Error: couldn't write MPSSE commands to FT2232
Polling target arc-em.cpu failed, GDB will be halted. Polling again in 6300ms
Error: FT_Write returned: io error
Error: couldn't write MPSSE commands to FT2232
Polling target arc-em.cpu failed, GDB will be halted. Polling again in 6300ms
Error: FT_Write returned: io error
Error: couldn't write MPSSE commands to FT2232
Polling target arc-em.cpu failed, GDB will be halted. Polling again in 6300ms
Error: FT_Write returned: io error
Error: couldn't write MPSSE commands to FT2232
Polling target arc-em.cpu failed, GDB will be halted. Polling again in 6300ms
Error: FT_Write returned: io error
Error: couldn't write MPSSE commands to FT2232
Polling target arc-em.cpu failed, GDB will be halted. Polling again in 6300ms
Error: FT_Write returned: io error
Error: couldn't write MPSSE commands to FT2232
Polling target arc-em.cpu failed, GDB will be halted. Polling again in 6300ms
Error: FT_Write returned: io error
Error: couldn't write MPSSE commands to FT2232
Polling target arc-em.cpu failed, GDB will be halted. Polling again in 6300ms
Error: FT_Write returned: io error
Error: couldn't write MPSSE commands to FT2232
Polling target arc-em.cpu failed, GDB will be halted. Polling again in 6300ms
Error: FT_Write returned: io error
Error: couldn't write MPSSE commands to FT2232
Polling target arc-em.cpu failed, GDB will be halted. Polling again in 6300ms
Error: FT_Write returned: io error
Error: couldn't write MPSSE commands to FT2232
Polling target arc-em.cpu failed, GDB will be halted. Polling again in 6300ms
Error: FT_Write returned: io error
Error: couldn't write MPSSE commands to FT2232
Polling target arc-em.cpu failed, GDB will be halted. Polling again in 6300ms
Error: FT_Write returned: io error
Error: couldn't write MPSSE commands to FT2232
Polling target arc-em.cpu failed, GDB will be halted. Polling again in 6300ms
Error: FT_Write returned: io error
Error: couldn't write MPSSE commands to FT2232
Polling target arc-em.cpu failed, GDB will be halted. Polling again in 6300ms
Error: FT_Write returned: io error
Error: couldn't write MPSSE commands to FT2232
Polling target arc-em.cpu failed, GDB will be halted. Polling again in 6300ms
Error: FT_Write returned: io error
Error: couldn't write MPSSE commands to FT2232
Polling target arc-em.cpu failed, GDB will be halted. Polling again in 6300ms
Error: FT_Write returned: io error
Error: couldn't write MPSSE commands to FT2232
Polling target arc-em.cpu failed, GDB will be halted. Polling again in 6300ms
Error: FT_Write returned: io error
Error: couldn't write MPSSE commands to FT2232
Polling target arc-em.cpu failed, GDB will be halted. Polling again in 6300ms
Error: FT_Write returned: io error
Error: couldn't write MPSSE commands to FT2232
Polling target arc-em.cpu failed, GDB will be halted. Polling again in 6300ms
Error: FT_Write returned: io error
Error: couldn't write MPSSE commands to FT2232
Polling target arc-em.cpu failed, GDB will be halted. Polling again in 6300ms
Error: FT_Write returned: io error
Error: couldn't write MPSSE commands to FT2232
Polling target arc-em.cpu failed, GDB will be halted. Polling again in 6300ms
Error: FT_Write returned: io error
Error: couldn't write MPSSE commands to FT2232
Polling target arc-em.cpu failed, GDB will be halted. Polling again in 6300ms
Error: FT_Write returned: io error
Error: couldn't write MPSSE commands to FT2232
Polling target arc-em.cpu failed, GDB will be halted. Polling again in 6300ms
Error: FT_Write returned: io error
Error: couldn't write MPSSE commands to FT2232
Polling target arc-em.cpu failed, GDB will be halted. Polling again in 6300ms
Error: FT_Write returned: io error
Error: couldn't write MPSSE commands to FT2232
Polling target arc-em.cpu failed, GDB will be halted. Polling again in 6300ms
Error: FT_Write returned: io error
Error: couldn't write MPSSE commands to FT2232
Polling target arc-em.cpu failed, GDB will be halted. Polling again in 6300ms
Error: FT_Write returned: io error
Error: couldn't write MPSSE commands to FT2232
Polling target arc-em.cpu failed, GDB will be halted. Polling again in 6300ms
Error: FT_Write returned: io error
Error: couldn't write MPSSE commands to FT2232
Polling target arc-em.cpu failed, GDB will be halted. Polling again in 6300ms
Error: FT_Write returned: io error
Error: couldn't write MPSSE commands to FT2232
Polling target arc-em.cpu failed, GDB will be halted. Polling again in 6300ms
Error: FT_Write returned: io error
Error: couldn't write MPSSE commands to FT2232
Polling target arc-em.cpu failed, GDB will be halted. Polling again in 6300ms
Error: FT_Write returned: io error
Error: couldn't write MPSSE commands to FT2232
Polling target arc-em.cpu failed, GDB will be halted. Polling again in 6300ms
Error: FT_Write returned: io error
Error: couldn't write MPSSE commands to FT2232
Polling target arc-em.cpu failed, GDB will be halted. Polling again in 6300ms
Error: FT_Write returned: io error
Error: couldn't write MPSSE commands to FT2232
Polling target arc-em.cpu failed, GDB will be halted. Polling again in 6300ms
Error: FT_Write returned: io error
Error: couldn't write MPSSE commands to FT2232
Polling target arc-em.cpu failed, GDB will be halted. Polling again in 6300ms
Error: FT_Write returned: io error
Error: couldn't write MPSSE commands to FT2232
Polling target arc-em.cpu failed, GDB will be halted. Polling again in 6300ms
Error: FT_Write returned: io error
Error: couldn't write MPSSE commands to FT2232
Polling target arc-em.cpu failed, GDB will be halted. Polling again in 6300ms
Error: FT_Write returned: io error
Error: couldn't write MPSSE commands to FT2232
Polling target arc-em.cpu failed, GDB will be halted. Polling again in 6300ms
Error: FT_Write returned: io error
Error: couldn't write MPSSE commands to FT2232
Polling target arc-em.cpu failed, GDB will be halted. Polling again in 6300ms
Error: FT_Write returned: io error
Error: couldn't write MPSSE commands to FT2232
Polling target arc-em.cpu failed, GDB will be halted. Polling again in 6300ms
Error: FT_Write returned: io error
Error: couldn't write MPSSE commands to FT2232
Polling target arc-em.cpu failed, GDB will be halted. Polling again in 6300ms
Error: FT_Write returned: io error
Error: couldn't write MPSSE commands to FT2232
Polling target arc-em.cpu failed, GDB will be halted. Polling again in 6300ms
Error: FT_Write returned: io error
Error: couldn't write MPSSE commands to FT2232
Polling target arc-em.cpu failed, GDB will be halted. Polling again in 6300ms
Error: FT_Write returned: io error
Error: couldn't write MPSSE commands to FT2232
Polling target arc-em.cpu failed, GDB will be halted. Polling again in 6300ms
Error: FT_Write returned: io error
Error: couldn't write MPSSE commands to FT2232
Polling target arc-em.cpu failed, GDB will be halted. Polling again in 6300ms
Error: FT_Write returned: io error
Error: couldn't write MPSSE commands to FT2232
Polling target arc-em.cpu failed, GDB will be halted. Polling again in 6300ms
Error: FT_Write returned: io error
Error: couldn't write MPSSE commands to FT2232
Polling target arc-em.cpu failed, GDB will be halted. Polling again in 6300ms
Error: FT_Write returned: io error
Error: couldn't write MPSSE commands to FT2232
Polling target arc-em.cpu failed, GDB will be halted. Polling again in 6300ms
Error: FT_Write returned: io error
Error: couldn't write MPSSE commands to FT2232
Polling target arc-em.cpu failed, GDB will be halted. Polling again in 6300ms
Error: FT_Write returned: io error
Error: couldn't write MPSSE commands to FT2232
Polling target arc-em.cpu failed, GDB will be halted. Polling again in 6300ms
Error: FT_Write returned: io error
Error: couldn't write MPSSE commands to FT2232
Polling target arc-em.cpu failed, GDB will be halted. Polling again in 6300ms
Error: FT_Write returned: io error
Error: couldn't write MPSSE commands to FT2232
Polling target arc-em.cpu failed, GDB will be halted. Polling again in 6300ms
Error: FT_Write returned: io error
Error: couldn't write MPSSE commands to FT2232
Polling target arc-em.cpu failed, GDB will be halted. Polling again in 6300ms
Error: FT_Write returned: io error
Error: couldn't write MPSSE commands to FT2232
Polling target arc-em.cpu failed, GDB will be halted. Polling again in 6300ms
Error: FT_Write returned: io error
Error: couldn't write MPSSE commands to FT2232
Polling target arc-em.cpu failed, GDB will be halted. Polling again in 6300ms
Error: FT_Write returned: io error
Error: couldn't write MPSSE commands to FT2232
Polling target arc-em.cpu failed, GDB will be halted. Polling again in 6300ms
Error: FT_Write returned: io error
Error: couldn't write MPSSE commands to FT2232
Polling target arc-em.cpu failed, GDB will be halted. Polling again in 6300ms
Error: FT_Write returned: io error
Error: couldn't write MPSSE commands to FT2232
Polling target arc-em.cpu failed, GDB will be halted. Polling again in 6300ms
Error: FT_Write returned: io error
Error: couldn't write MPSSE commands to FT2232
Polling target arc-em.cpu failed, GDB will be halted. Polling again in 6300ms
Error: FT_Write returned: io error
Error: couldn't write MPSSE commands to FT2232
Polling target arc-em.cpu failed, GDB will be halted. Polling again in 6300ms
Error: FT_Write returned: io error
Error: couldn't write MPSSE commands to FT2232
Polling target arc-em.cpu failed, GDB will be halted. Polling again in 6300ms
Error: FT_Write returned: io error
Error: couldn't write MPSSE commands to FT2232
Polling target arc-em.cpu failed, GDB will be halted. Polling again in 6300ms
Error: FT_Write returned: io error
Error: couldn't write MPSSE commands to FT2232
Polling target arc-em.cpu failed, GDB will be halted. Polling again in 6300ms
Error: FT_Write returned: io error
Error: couldn't write MPSSE commands to FT2232
Polling target arc-em.cpu failed, GDB will be halted. Polling again in 6300ms
Error: FT_Write returned: io error
Error: couldn't write MPSSE commands to FT2232
Polling target arc-em.cpu failed, GDB will be halted. Polling again in 6300ms
Error: FT_Write returned: io error
Error: couldn't write MPSSE commands to FT2232
Polling target arc-em.cpu failed, GDB will be halted. Polling again in 6300ms
Error: FT_Write returned: io error
Error: couldn't write MPSSE commands to FT2232
Polling target arc-em.cpu failed, GDB will be halted. Polling again in 6300ms
Error: FT_Write returned: io error
Error: couldn't write MPSSE commands to FT2232
Polling target arc-em.cpu failed, GDB will be halted. Polling again in 6300ms
Error: FT_Write returned: io error
Error: couldn't write MPSSE commands to FT2232
Polling target arc-em.cpu failed, GDB will be halted. Polling again in 6300ms
Error: FT_Write returned: io error
Error: couldn't write MPSSE commands to FT2232
Polling target arc-em.cpu failed, GDB will be halted. Polling again in 6300ms
Error: FT_Write returned: io error
Error: couldn't write MPSSE commands to FT2232
Polling target arc-em.cpu failed, GDB will be halted. Polling again in 6300ms
Error: FT_Write returned: io error
Error: couldn't write MPSSE commands to FT2232
Polling target arc-em.cpu failed, GDB will be halted. Polling again in 6300ms
Error: FT_Write returned: io error
Error: couldn't write MPSSE commands to FT2232
Polling target arc-em.cpu failed, GDB will be halted. Polling again in 6300ms
Error: FT_Write returned: io error
Error: couldn't write MPSSE commands to FT2232
Polling target arc-em.cpu failed, GDB will be halted. Polling again in 6300ms
Error: FT_Write returned: io error
Error: couldn't write MPSSE commands to FT2232
Polling target arc-em.cpu failed, GDB will be halted. Polling again in 6300ms
Error: FT_Write returned: io error
Error: couldn't write MPSSE commands to FT2232
Polling target arc-em.cpu failed, GDB will be halted. Polling again in 6300ms
Error: FT_Write returned: io error
Error: couldn't write MPSSE commands to FT2232
Polling target arc-em.cpu failed, GDB will be halted. Polling again in 6300ms
Error: FT_Write returned: io error
Error: couldn't write MPSSE commands to FT2232
Polling target arc-em.cpu failed, GDB will be halted. Polling again in 6300ms
Error: FT_Write returned: io error
Error: couldn't write MPSSE commands to FT2232
Polling target arc-em.cpu failed, GDB will be halted. Polling again in 6300ms
Error: FT_Write returned: io error
Error: couldn't write MPSSE commands to FT2232
Polling target arc-em.cpu failed, GDB will be halted. Polling again in 6300ms
Error: FT_Write returned: io error
Error: couldn't write MPSSE commands to FT2232
Polling target arc-em.cpu failed, GDB will be halted. Polling again in 6300ms
Error: FT_Write returned: io error
Error: couldn't write MPSSE commands to FT2232
Polling target arc-em.cpu failed, GDB will be halted. Polling again in 6300ms
Error: FT_Write returned: io error
Error: couldn't write MPSSE commands to FT2232
Polling target arc-em.cpu failed, GDB will be halted. Polling again in 6300ms
Error: FT_Write returned: io error
Error: couldn't write MPSSE commands to FT2232
Polling target arc-em.cpu failed, GDB will be halted. Polling again in 6300ms
Error: FT_Write returned: io error
Error: couldn't write MPSSE commands to FT2232
Polling target arc-em.cpu failed, GDB will be halted. Polling again in 6300ms
Error: FT_Write returned: io error
Error: couldn't write MPSSE commands to FT2232
Polling target arc-em.cpu failed, GDB will be halted. Polling again in 6300ms
Error: FT_Write returned: io error
Error: couldn't write MPSSE commands to FT2232
Polling target arc-em.cpu failed, GDB will be halted. Polling again in 6300ms
Error: FT_Write returned: io error
Error: couldn't write MPSSE commands to FT2232
Polling target arc-em.cpu failed, GDB will be halted. Polling again in 6300ms
Error: FT_Write returned: io error
Error: couldn't write MPSSE commands to FT2232
Polling target arc-em.cpu failed, GDB will be halted. Polling again in 6300ms
Error: FT_Write returned: io error
Error: couldn't write MPSSE commands to FT2232
Polling target arc-em.cpu failed, GDB will be halted. Polling again in 6300ms
Error: FT_Write returned: io error
Error: couldn't write MPSSE commands to FT2232
Polling target arc-em.cpu failed, GDB will be halted. Polling again in 6300ms
Error: FT_Write returned: io error
Error: couldn't write MPSSE commands to FT2232
Polling target arc-em.cpu failed, GDB will be halted. Polling again in 6300ms
Error: FT_Write returned: io error
Error: couldn't write MPSSE commands to FT2232
Polling target arc-em.cpu failed, GDB will be halted. Polling again in 6300ms
Error: FT_Write returned: io error
Error: couldn't write MPSSE commands to FT2232
Polling target arc-em.cpu failed, GDB will be halted. Polling again in 6300ms
Error: FT_Write returned: io error
Error: couldn't write MPSSE commands to FT2232
Polling target arc-em.cpu failed, GDB will be halted. Polling again in 6300ms
Error: FT_Write returned: io error
Error: couldn't write MPSSE commands to FT2232
Polling target arc-em.cpu failed, GDB will be halted. Polling again in 6300ms
Error: FT_Write returned: io error
Error: couldn't write MPSSE commands to FT2232
Polling target arc-em.cpu failed, GDB will be halted. Polling again in 6300ms
Error: FT_Write returned: io error
Error: couldn't write MPSSE commands to FT2232
Polling target arc-em.cpu failed, GDB will be halted. Polling again in 6300ms
Error: FT_Write returned: io error
Error: couldn't write MPSSE commands to FT2232
Polling target arc-em.cpu failed, GDB will be halted. Polling again in 6300ms
Error: FT_Write returned: io error
Error: couldn't write MPSSE commands to FT2232
Polling target arc-em.cpu failed, GDB will be halted. Polling again in 6300ms
Error: FT_Write returned: io error
Error: couldn't write MPSSE commands to FT2232
Polling target arc-em.cpu failed, GDB will be halted. Polling again in 6300ms
Error: FT_Write returned: io error
Error: couldn't write MPSSE commands to FT2232
Polling target arc-em.cpu failed, GDB will be halted. Polling again in 6300ms
Error: FT_Write returned: io error
Error: couldn't write MPSSE commands to FT2232
Polling target arc-em.cpu failed, GDB will be halted. Polling again in 6300ms
Error: FT_Write returned: io error
Error: couldn't write MPSSE commands to FT2232
Polling target arc-em.cpu failed, GDB will be halted. Polling again in 6300ms
Error: FT_Write returned: io error
Error: couldn't write MPSSE commands to FT2232
Polling target arc-em.cpu failed, GDB will be halted. Polling again in 6300ms
Error: FT_Write returned: io error
Error: couldn't write MPSSE commands to FT2232
Polling target arc-em.cpu failed, GDB will be halted. Polling again in 6300ms
Error: FT_Write returned: io error
Error: couldn't write MPSSE commands to FT2232
Polling target arc-em.cpu failed, GDB will be halted. Polling again in 6300ms
Error: FT_Write returned: io error
Error: couldn't write MPSSE commands to FT2232
Polling target arc-em.cpu failed, GDB will be halted. Polling again in 6300ms
Error: FT_Write returned: io error
Error: couldn't write MPSSE commands to FT2232
Polling target arc-em.cpu failed, GDB will be halted. Polling again in 6300ms
Error: FT_Write returned: io error
Error: couldn't write MPSSE commands to FT2232
Polling target arc-em.cpu failed, GDB will be halted. Polling again in 6300ms
Error: FT_Write returned: io error
Error: couldn't write MPSSE commands to FT2232
Polling target arc-em.cpu failed, GDB will be halted. Polling again in 6300ms
Error: FT_Write returned: io error
Error: couldn't write MPSSE commands to FT2232
Polling target arc-em.cpu failed, GDB will be halted. Polling again in 6300ms
Error: FT_Write returned: io error
Error: couldn't write MPSSE commands to FT2232
Polling target arc-em.cpu failed, GDB will be halted. Polling again in 6300ms
Error: FT_Write returned: io error
Error: couldn't write MPSSE commands to FT2232
Polling target arc-em.cpu failed, GDB will be halted. Polling again in 6300ms
Error: FT_Write returned: io error
Error: couldn't write MPSSE commands to FT2232
Polling target arc-em.cpu failed, GDB will be halted. Polling again in 6300ms
Error: FT_Write returned: io error
Error: couldn't write MPSSE commands to FT2232
Polling target arc-em.cpu failed, GDB will be halted. Polling again in 6300ms
Error: FT_Write returned: io error
Error: couldn't write MPSSE commands to FT2232
Polling target arc-em.cpu failed, GDB will be halted. Polling again in 6300ms
Error: FT_Write returned: io error
Error: couldn't write MPSSE commands to FT2232
Polling target arc-em.cpu failed, GDB will be halted. Polling again in 6300ms
Error: FT_Write returned: io error
Error: couldn't write MPSSE commands to FT2232
Polling target arc-em.cpu failed, GDB will be halted. Polling again in 6300ms
Error: FT_Write returned: io error
Error: couldn't write MPSSE commands to FT2232
Polling target arc-em.cpu failed, GDB will be halted. Polling again in 6300ms
Error: FT_Write returned: io error
Error: couldn't write MPSSE commands to FT2232
Polling target arc-em.cpu failed, GDB will be halted. Polling again in 6300ms
Error: FT_Write returned: io error
Error: couldn't write MPSSE commands to FT2232
Polling target arc-em.cpu failed, GDB will be halted. Polling again in 6300ms
Error: FT_Write returned: io error
Error: couldn't write MPSSE commands to FT2232
Polling target arc-em.cpu failed, GDB will be halted. Polling again in 6300ms
Error: FT_Write returned: io error
Error: couldn't write MPSSE commands to FT2232
Polling target arc-em.cpu failed, GDB will be halted. Polling again in 6300ms
Error: FT_Write returned: io error
Error: couldn't write MPSSE commands to FT2232
Polling target arc-em.cpu failed, GDB will be halted. Polling again in 6300ms
Error: FT_Write returned: io error
Error: couldn't write MPSSE commands to FT2232
Polling target arc-em.cpu failed, GDB will be halted. Polling again in 6300ms
Error: FT_Write returned: io error
Error: couldn't write MPSSE commands to FT2232
Polling target arc-em.cpu failed, GDB will be halted. Polling again in 6300ms
Error: FT_Write returned: io error
Error: couldn't write MPSSE commands to FT2232
Polling target arc-em.cpu failed, GDB will be halted. Polling again in 6300ms
Error: FT_Write returned: io error
Error: couldn't write MPSSE commands to FT2232
Polling target arc-em.cpu failed, GDB will be halted. Polling again in 6300ms
Error: FT_Write returned: io error
Error: couldn't write MPSSE commands to FT2232
Polling target arc-em.cpu failed, GDB will be halted. Polling again in 6300ms
Error: FT_Write returned: io error
Error: couldn't write MPSSE commands to FT2232
Polling target arc-em.cpu failed, GDB will be halted. Polling again in 6300ms
Error: FT_Write returned: io error
Error: couldn't write MPSSE commands to FT2232
Polling target arc-em.cpu failed, GDB will be halted. Polling again in 6300ms
Error: FT_Write returned: io error
Error: couldn't write MPSSE commands to FT2232
Polling target arc-em.cpu failed, GDB will be halted. Polling again in 6300ms
Error: FT_Write returned: io error
Error: couldn't write MPSSE commands to FT2232
Polling target arc-em.cpu failed, GDB will be halted. Polling again in 6300ms
Error: FT_Write returned: io error
Error: couldn't write MPSSE commands to FT2232
Polling target arc-em.cpu failed, GDB will be halted. Polling again in 6300ms
Error: FT_Write returned: io error
Error: couldn't write MPSSE commands to FT2232
Polling target arc-em.cpu failed, GDB will be halted. Polling again in 6300ms
Error: FT_Write returned: io error
Error: couldn't write MPSSE commands to FT2232
Polling target arc-em.cpu failed, GDB will be halted. Polling again in 6300ms
Error: FT_Write returned: io error
Error: couldn't write MPSSE commands to FT2232
Polling target arc-em.cpu failed, GDB will be halted. Polling again in 6300ms
Error: FT_Write returned: io error
Error: couldn't write MPSSE commands to FT2232
Polling target arc-em.cpu failed, GDB will be halted. Polling again in 6300ms
Error: FT_Write returned: io error
Error: couldn't write MPSSE commands to FT2232
Polling target arc-em.cpu failed, GDB will be halted. Polling again in 6300ms
Error: FT_Write returned: io error
Error: couldn't write MPSSE commands to FT2232
Polling target arc-em.cpu failed, GDB will be halted. Polling again in 6300ms
Error: FT_Write returned: io error
Error: couldn't write MPSSE commands to FT2232
Polling target arc-em.cpu failed, GDB will be halted. Polling again in 6300ms
Error: FT_Write returned: io error
Error: couldn't write MPSSE commands to FT2232
Polling target arc-em.cpu failed, GDB will be halted. Polling again in 6300ms
Error: FT_Write returned: io error
Error: couldn't write MPSSE commands to FT2232
Polling target arc-em.cpu failed, GDB will be halted. Polling again in 6300ms
Error: FT_Write returned: io error
Error: couldn't write MPSSE commands to FT2232
Polling target arc-em.cpu failed, GDB will be halted. Polling again in 6300ms
Error: FT_Write returned: io error
Error: couldn't write MPSSE commands to FT2232
Polling target arc-em.cpu failed, GDB will be halted. Polling again in 6300ms
Error: FT_Write returned: io error
Error: couldn't write MPSSE commands to FT2232
Polling target arc-em.cpu failed, GDB will be halted. Polling again in 6300ms
Error: FT_Write returned: io error
Error: couldn't write MPSSE commands to FT2232
Polling target arc-em.cpu failed, GDB will be halted. Polling again in 6300ms
Error: FT_Write returned: io error
Error: couldn't write MPSSE commands to FT2232
Polling target arc-em.cpu failed, GDB will be halted. Polling again in 6300ms
Error: FT_Write returned: io error
Error: couldn't write MPSSE commands to FT2232
Polling target arc-em.cpu failed, GDB will be halted. Polling again in 6300ms
Error: FT_Write returned: io error
Error: couldn't write MPSSE commands to FT2232
Polling target arc-em.cpu failed, GDB will be halted. Polling again in 6300ms
Error: FT_Write returned: io error
Error: couldn't write MPSSE commands to FT2232
Polling target arc-em.cpu failed, GDB will be halted. Polling again in 6300ms
Error: FT_Write returned: io error
Error: couldn't write MPSSE commands to FT2232
Polling target arc-em.cpu failed, GDB will be halted. Polling again in 6300ms
Error: FT_Write returned: io error
Error: couldn't write MPSSE commands to FT2232
Polling target arc-em.cpu failed, GDB will be halted. Polling again in 6300ms
Error: FT_Write returned: io error
Error: couldn't write MPSSE commands to FT2232
Polling target arc-em.cpu failed, GDB will be halted. Polling again in 6300ms
Error: FT_Write returned: io error
Error: couldn't write MPSSE commands to FT2232
Polling target arc-em.cpu failed, GDB will be halted. Polling again in 6300ms
Error: FT_Write returned: io error
Error: couldn't write MPSSE commands to FT2232
Polling target arc-em.cpu failed, GDB will be halted. Polling again in 6300ms
Error: FT_Write returned: io error
Error: couldn't write MPSSE commands to FT2232
Polling target arc-em.cpu failed, GDB will be halted. Polling again in 6300ms
Error: FT_Write returned: io error
Error: couldn't write MPSSE commands to FT2232
Polling target arc-em.cpu failed, GDB will be halted. Polling again in 6300ms
Error: FT_Write returned: io error
Error: couldn't write MPSSE commands to FT2232
Polling target arc-em.cpu failed, GDB will be halted. Polling again in 6300ms
Error: FT_Write returned: io error
Error: couldn't write MPSSE commands to FT2232
Polling target arc-em.cpu failed, GDB will be halted. Polling again in 6300ms
Error: FT_Write returned: io error
Error: couldn't write MPSSE commands to FT2232
Polling target arc-em.cpu failed, GDB will be halted. Polling again in 6300ms
Error: FT_Write returned: io error
Error: couldn't write MPSSE commands to FT2232
Polling target arc-em.cpu failed, GDB will be halted. Polling again in 6300ms
Error: FT_Write returned: io error
Error: couldn't write MPSSE commands to FT2232
Polling target arc-em.cpu failed, GDB will be halted. Polling again in 6300ms
Error: FT_Write returned: io error
Error: couldn't write MPSSE commands to FT2232
Polling target arc-em.cpu failed, GDB will be halted. Polling again in 6300ms
Error: FT_Write returned: io error
Error: couldn't write MPSSE commands to FT2232
Polling target arc-em.cpu failed, GDB will be halted. Polling again in 6300ms
Error: FT_Write returned: io error
Error: couldn't write MPSSE commands to FT2232
Polling target arc-em.cpu failed, GDB will be halted. Polling again in 6300ms
Error: FT_Write returned: io error
Error: couldn't write MPSSE commands to FT2232
Polling target arc-em.cpu failed, GDB will be halted. Polling again in 6300ms
Error: FT_Write returned: io error
Error: couldn't write MPSSE commands to FT2232
Polling target arc-em.cpu failed, GDB will be halted. Polling again in 6300ms
Error: FT_Write returned: io error
Error: couldn't write MPSSE commands to FT2232
Polling target arc-em.cpu failed, GDB will be halted. Polling again in 6300ms
Error: FT_Write returned: io error
Error: couldn't write MPSSE commands to FT2232
Polling target arc-em.cpu failed, GDB will be halted. Polling again in 6300ms
Error: FT_Write returned: io error
Error: couldn't write MPSSE commands to FT2232
Polling target arc-em.cpu failed, GDB will be halted. Polling again in 6300ms
Error: FT_Write returned: io error
Error: couldn't write MPSSE commands to FT2232
Polling target arc-em.cpu failed, GDB will be halted. Polling again in 6300ms
Error: FT_Write returned: io error
Error: couldn't write MPSSE commands to FT2232
Polling target arc-em.cpu failed, GDB will be halted. Polling again in 6300ms
Error: FT_Write returned: io error
Error: couldn't write MPSSE commands to FT2232
Polling target arc-em.cpu failed, GDB will be halted. Polling again in 6300ms
Error: FT_Write returned: io error
Error: couldn't write MPSSE commands to FT2232
Polling target arc-em.cpu failed, GDB will be halted. Polling again in 6300ms
Error: FT_Write returned: io error
Error: couldn't write MPSSE commands to FT2232
Polling target arc-em.cpu failed, GDB will be halted. Polling again in 6300ms
Error: FT_Write returned: io error
Error: couldn't write MPSSE commands to FT2232
Polling target arc-em.cpu failed, GDB will be halted. Polling again in 6300ms
Error: FT_Write returned: io error
Error: couldn't write MPSSE commands to FT2232
Polling target arc-em.cpu failed, GDB will be halted. Polling again in 6300ms
Error: FT_Write returned: io error
Error: couldn't write MPSSE commands to FT2232
Polling target arc-em.cpu failed, GDB will be halted. Polling again in 6300ms
Error: FT_Write returned: io error
Error: couldn't write MPSSE commands to FT2232
Polling target arc-em.cpu failed, GDB will be halted. Polling again in 6300ms
Error: FT_Write returned: io error
Error: couldn't write MPSSE commands to FT2232
Polling target arc-em.cpu failed, GDB will be halted. Polling again in 6300ms
Error: FT_Write returned: io error
Error: couldn't write MPSSE commands to FT2232
Polling target arc-em.cpu failed, GDB will be halted. Polling again in 6300ms
Error: FT_Write returned: io error
Error: couldn't write MPSSE commands to FT2232
Polling target arc-em.cpu failed, GDB will be halted. Polling again in 6300ms
Error: FT_Write returned: io error
Error: couldn't write MPSSE commands to FT2232
Polling target arc-em.cpu failed, GDB will be halted. Polling again in 6300ms
Error: FT_Write returned: io error
Error: couldn't write MPSSE commands to FT2232
Polling target arc-em.cpu failed, GDB will be halted. Polling again in 6300ms
Error: FT_Write returned: io error
Error: couldn't write MPSSE commands to FT2232
Polling target arc-em.cpu failed, GDB will be halted. Polling again in 6300ms
Error: FT_Write returned: io error
Error: couldn't write MPSSE commands to FT2232
Polling target arc-em.cpu failed, GDB will be halted. Polling again in 6300ms
Error: FT_Write returned: io error
Error: couldn't write MPSSE commands to FT2232
Polling target arc-em.cpu failed, GDB will be halted. Polling again in 6300ms
Error: FT_Write returned: io error
Error: couldn't write MPSSE commands to FT2232
Polling target arc-em.cpu failed, GDB will be halted. Polling again in 6300ms
Error: FT_Write returned: io error
Error: couldn't write MPSSE commands to FT2232
Polling target arc-em.cpu failed, GDB will be halted. Polling again in 6300ms
Error: FT_Write returned: io error
Error: couldn't write MPSSE commands to FT2232
Polling target arc-em.cpu failed, GDB will be halted. Polling again in 6300ms
Error: FT_Write returned: io error
Error: couldn't write MPSSE commands to FT2232
Polling target arc-em.cpu failed, GDB will be halted. Polling again in 6300ms
Error: FT_Write returned: io error
Error: couldn't write MPSSE commands to FT2232
Polling target arc-em.cpu failed, GDB will be halted. Polling again in 6300ms
Error: FT_Write returned: io error
Error: couldn't write MPSSE commands to FT2232
Polling target arc-em.cpu failed, GDB will be halted. Polling again in 6300ms
Error: FT_Write returned: io error
Error: couldn't write MPSSE commands to FT2232
Polling target arc-em.cpu failed, GDB will be halted. Polling again in 6300ms
Error: FT_Write returned: io error
Error: couldn't write MPSSE commands to FT2232
Polling target arc-em.cpu failed, GDB will be halted. Polling again in 6300ms
Error: FT_Write returned: io error
Error: couldn't write MPSSE commands to FT2232
Polling target arc-em.cpu failed, GDB will be halted. Polling again in 6300ms
Error: FT_Write returned: io error
Error: couldn't write MPSSE commands to FT2232
Polling target arc-em.cpu failed, GDB will be halted. Polling again in 6300ms
Error: FT_Write returned: io error
Error: couldn't write MPSSE commands to FT2232
Polling target arc-em.cpu failed, GDB will be halted. Polling again in 6300ms
Error: FT_Write returned: io error
Error: couldn't write MPSSE commands to FT2232
Polling target arc-em.cpu failed, GDB will be halted. Polling again in 6300ms
Error: FT_Write returned: io error
Error: couldn't write MPSSE commands to FT2232
Polling target arc-em.cpu failed, GDB will be halted. Polling again in 6300ms
Error: FT_Write returned: io error
Error: couldn't write MPSSE commands to FT2232
Polling target arc-em.cpu failed, GDB will be halted. Polling again in 6300ms
Error: FT_Write returned: io error
Error: couldn't write MPSSE commands to FT2232
Polling target arc-em.cpu failed, GDB will be halted. Polling again in 6300ms
Error: FT_Write returned: io error
Error: couldn't write MPSSE commands to FT2232
Polling target arc-em.cpu failed, GDB will be halted. Polling again in 6300ms
Error: FT_Write returned: io error
Error: couldn't write MPSSE commands to FT2232
Polling target arc-em.cpu failed, GDB will be halted. Polling again in 6300ms
Error: FT_Write returned: io error
Error: couldn't write MPSSE commands to FT2232
Polling target arc-em.cpu failed, GDB will be halted. Polling again in 6300ms
Error: FT_Write returned: io error
Error: couldn't write MPSSE commands to FT2232
Polling target arc-em.cpu failed, GDB will be halted. Polling again in 6300ms
Error: FT_Write returned: io error
Error: couldn't write MPSSE commands to FT2232
Polling target arc-em.cpu failed, GDB will be halted. Polling again in 6300ms
Error: FT_Write returned: io error
Error: couldn't write MPSSE commands to FT2232
Polling target arc-em.cpu failed, GDB will be halted. Polling again in 6300ms
Error: FT_Write returned: io error
Error: couldn't write MPSSE commands to FT2232
Polling target arc-em.cpu failed, GDB will be halted. Polling again in 6300ms
Error: FT_Write returned: io error
Error: couldn't write MPSSE commands to FT2232
Polling target arc-em.cpu failed, GDB will be halted. Polling again in 6300ms
Error: FT_Write returned: io error
Error: couldn't write MPSSE commands to FT2232
Polling target arc-em.cpu failed, GDB will be halted. Polling again in 6300ms
Error: FT_Write returned: io error
Error: couldn't write MPSSE commands to FT2232
Polling target arc-em.cpu failed, GDB will be halted. Polling again in 6300ms
Error: FT_Write returned: io error
Error: couldn't write MPSSE commands to FT2232
Polling target arc-em.cpu failed, GDB will be halted. Polling again in 6300ms
Error: FT_Write returned: io error
Error: couldn't write MPSSE commands to FT2232
Polling target arc-em.cpu failed, GDB will be halted. Polling again in 6300ms
Error: FT_Write returned: io error
Error: couldn't write MPSSE commands to FT2232
Polling target arc-em.cpu failed, GDB will be halted. Polling again in 6300ms
Error: FT_Write returned: io error
Error: couldn't write MPSSE commands to FT2232
Polling target arc-em.cpu failed, GDB will be halted. Polling again in 6300ms
Error: FT_Write returned: io error
Error: couldn't write MPSSE commands to FT2232
Polling target arc-em.cpu failed, GDB will be halted. Polling again in 6300ms
Error: FT_Write returned: io error
Error: couldn't write MPSSE commands to FT2232
Polling target arc-em.cpu failed, GDB will be halted. Polling again in 6300ms
Error: FT_Write returned: io error
Error: couldn't write MPSSE commands to FT2232
Polling target arc-em.cpu failed, GDB will be halted. Polling again in 6300ms
Error: FT_Write returned: io error
Error: couldn't write MPSSE commands to FT2232
Polling target arc-em.cpu failed, GDB will be halted. Polling again in 6300ms
Error: FT_Write returned: io error
Error: couldn't write MPSSE commands to FT2232
Polling target arc-em.cpu failed, GDB will be halted. Polling again in 6300ms
Error: FT_Write returned: io error
Error: couldn't write MPSSE commands to FT2232
Polling target arc-em.cpu failed, GDB will be halted. Polling again in 6300ms
Error: FT_Write returned: io error
Error: couldn't write MPSSE commands to FT2232
Polling target arc-em.cpu failed, GDB will be halted. Polling again in 6300ms
Error: FT_Write returned: io error
Error: couldn't write MPSSE commands to FT2232
Polling target arc-em.cpu failed, GDB will be halted. Polling again in 6300ms
Error: FT_Write returned: io error
Error: couldn't write MPSSE commands to FT2232
Polling target arc-em.cpu failed, GDB will be halted. Polling again in 6300ms
Error: FT_Write returned: io error
Error: couldn't write MPSSE commands to FT2232
Polling target arc-em.cpu failed, GDB will be halted. Polling again in 6300ms
Error: FT_Write returned: io error
Error: couldn't write MPSSE commands to FT2232
Polling target arc-em.cpu failed, GDB will be halted. Polling again in 6300ms
Error: FT_Write returned: io error
Error: couldn't write MPSSE commands to FT2232
Polling target arc-em.cpu failed, GDB will be halted. Polling again in 6300ms
Error: FT_Write returned: io error
Error: couldn't write MPSSE commands to FT2232
Polling target arc-em.cpu failed, GDB will be halted. Polling again in 6300ms
Error: FT_Write returned: io error
Error: couldn't write MPSSE commands to FT2232
Polling target arc-em.cpu failed, GDB will be halted. Polling again in 6300ms
Error: FT_Write returned: io error
Error: couldn't write MPSSE commands to FT2232
Polling target arc-em.cpu failed, GDB will be halted. Polling again in 6300ms
Error: FT_Write returned: io error
Error: couldn't write MPSSE commands to FT2232
Polling target arc-em.cpu failed, GDB will be halted. Polling again in 6300ms
Error: FT_Write returned: io error
Error: couldn't write MPSSE commands to FT2232
Polling target arc-em.cpu failed, GDB will be halted. Polling again in 6300ms
Error: FT_Write returned: io error
Error: couldn't write MPSSE commands to FT2232
Polling target arc-em.cpu failed, GDB will be halted. Polling again in 6300ms
Error: FT_Write returned: io error
Error: couldn't write MPSSE commands to FT2232
Polling target arc-em.cpu failed, GDB will be halted. Polling again in 6300ms
Error: FT_Write returned: io error
Error: couldn't write MPSSE commands to FT2232
Polling target arc-em.cpu failed, GDB will be halted. Polling again in 6300ms
Error: FT_Write returned: io error
Error: couldn't write MPSSE commands to FT2232
Polling target arc-em.cpu failed, GDB will be halted. Polling again in 6300ms
Error: FT_Write returned: io error
Error: couldn't write MPSSE commands to FT2232
Polling target arc-em.cpu failed, GDB will be halted. Polling again in 6300ms
Error: FT_Write returned: io error
Error: couldn't write MPSSE commands to FT2232
Polling target arc-em.cpu failed, GDB will be halted. Polling again in 6300ms
Error: FT_Write returned: io error
Error: couldn't write MPSSE commands to FT2232
Polling target arc-em.cpu failed, GDB will be halted. Polling again in 6300ms
Error: FT_Write returned: io error
Error: couldn't write MPSSE commands to FT2232
Polling target arc-em.cpu failed, GDB will be halted. Polling again in 6300ms
Error: FT_Write returned: io error
Error: couldn't write MPSSE commands to FT2232
Polling target arc-em.cpu failed, GDB will be halted. Polling again in 6300ms
Error: FT_Write returned: io error
Error: couldn't write MPSSE commands to FT2232
Polling target arc-em.cpu failed, GDB will be halted. Polling again in 6300ms
Error: FT_Write returned: io error
Error: couldn't write MPSSE commands to FT2232
Polling target arc-em.cpu failed, GDB will be halted. Polling again in 6300ms
Error: FT_Write returned: io error
Error: couldn't write MPSSE commands to FT2232
Polling target arc-em.cpu failed, GDB will be halted. Polling again in 6300ms
Error: FT_Write returned: io error
Error: couldn't write MPSSE commands to FT2232
Polling target arc-em.cpu failed, GDB will be halted. Polling again in 6300ms
Error: FT_Write returned: io error
Error: couldn't write MPSSE commands to FT2232
Polling target arc-em.cpu failed, GDB will be halted. Polling again in 6300ms
Error: FT_Write returned: io error
Error: couldn't write MPSSE commands to FT2232
Polling target arc-em.cpu failed, GDB will be halted. Polling again in 6300ms
Error: FT_Write returned: io error
Error: couldn't write MPSSE commands to FT2232
Polling target arc-em.cpu failed, GDB will be halted. Polling again in 6300ms
Error: FT_Write returned: io error
Error: couldn't write MPSSE commands to FT2232
Polling target arc-em.cpu failed, GDB will be halted. Polling again in 6300ms
Error: FT_Write returned: io error
Error: couldn't write MPSSE commands to FT2232
Polling target arc-em.cpu failed, GDB will be halted. Polling again in 6300ms
Error: FT_Write returned: io error
Error: couldn't write MPSSE commands to FT2232
Polling target arc-em.cpu failed, GDB will be halted. Polling again in 6300ms
Error: FT_Write returned: io error
Error: couldn't write MPSSE commands to FT2232
Polling target arc-em.cpu failed, GDB will be halted. Polling again in 6300ms
Error: FT_Write returned: io error
Error: couldn't write MPSSE commands to FT2232
Polling target arc-em.cpu failed, GDB will be halted. Polling again in 6300ms
Error: FT_Write returned: io error
Error: couldn't write MPSSE commands to FT2232
Polling target arc-em.cpu failed, GDB will be halted. Polling again in 6300ms
Error: FT_Write returned: io error
Error: couldn't write MPSSE commands to FT2232
Polling target arc-em.cpu failed, GDB will be halted. Polling again in 6300ms
Error: FT_Write returned: io error
Error: couldn't write MPSSE commands to FT2232
Polling target arc-em.cpu failed, GDB will be halted. Polling again in 6300ms
Error: FT_Write returned: io error
Error: couldn't write MPSSE commands to FT2232
Polling target arc-em.cpu failed, GDB will be halted. Polling again in 6300ms
Error: FT_Write returned: io error
Error: couldn't write MPSSE commands to FT2232
Polling target arc-em.cpu failed, GDB will be halted. Polling again in 6300ms
Error: FT_Write returned: io error
Error: couldn't write MPSSE commands to FT2232
Polling target arc-em.cpu failed, GDB will be halted. Polling again in 6300ms
Error: FT_Write returned: io error
Error: couldn't write MPSSE commands to FT2232
Polling target arc-em.cpu failed, GDB will be halted. Polling again in 6300ms
Error: FT_Write returned: io error
Error: couldn't write MPSSE commands to FT2232
Polling target arc-em.cpu failed, GDB will be halted. Polling again in 6300ms
Error: FT_Write returned: io error
Error: couldn't write MPSSE commands to FT2232
Polling target arc-em.cpu failed, GDB will be halted. Polling again in 6300ms
Error: FT_Write returned: io error
Error: couldn't write MPSSE commands to FT2232
Polling target arc-em.cpu failed, GDB will be halted. Polling again in 6300ms
Error: FT_Write returned: io error
Error: couldn't write MPSSE commands to FT2232
Polling target arc-em.cpu failed, GDB will be halted. Polling again in 6300ms
Error: FT_Write returned: io error
Error: couldn't write MPSSE commands to FT2232
Polling target arc-em.cpu failed, GDB will be halted. Polling again in 6300ms
Error: FT_Write returned: io error
Error: couldn't write MPSSE commands to FT2232
Polling target arc-em.cpu failed, GDB will be halted. Polling again in 6300ms
Error: FT_Write returned: io error
Error: couldn't write MPSSE commands to FT2232
Polling target arc-em.cpu failed, GDB will be halted. Polling again in 6300ms
Error: FT_Write returned: io error
Error: couldn't write MPSSE commands to FT2232
Polling target arc-em.cpu failed, GDB will be halted. Polling again in 6300ms
Error: FT_Write returned: io error
Error: couldn't write MPSSE commands to FT2232
Polling target arc-em.cpu failed, GDB will be halted. Polling again in 6300ms
Error: FT_Write returned: io error
Error: couldn't write MPSSE commands to FT2232
Polling target arc-em.cpu failed, GDB will be halted. Polling again in 6300ms
Error: FT_Write returned: io error
Error: couldn't write MPSSE commands to FT2232
Polling target arc-em.cpu failed, GDB will be halted. Polling again in 6300ms
Error: FT_Write returned: io error
Error: couldn't write MPSSE commands to FT2232
Polling target arc-em.cpu failed, GDB will be halted. Polling again in 6300ms
Error: FT_Write returned: io error
Error: couldn't write MPSSE commands to FT2232
Polling target arc-em.cpu failed, GDB will be halted. Polling again in 6300ms
Error: FT_Write returned: io error
Error: couldn't write MPSSE commands to FT2232
Polling target arc-em.cpu failed, GDB will be halted. Polling again in 6300ms
Error: FT_Write returned: io error
Error: couldn't write MPSSE commands to FT2232
Polling target arc-em.cpu failed, GDB will be halted. Polling again in 6300ms
Error: FT_Write returned: io error
Error: couldn't write MPSSE commands to FT2232
Polling target arc-em.cpu failed, GDB will be halted. Polling again in 6300ms
Error: FT_Write returned: io error
Error: couldn't write MPSSE commands to FT2232
Polling target arc-em.cpu failed, GDB will be halted. Polling again in 6300ms
Error: FT_Write returned: io error
Error: couldn't write MPSSE commands to FT2232
Polling target arc-em.cpu failed, GDB will be halted. Polling again in 6300ms
Error: FT_Write returned: io error
Error: couldn't write MPSSE commands to FT2232
Polling target arc-em.cpu failed, GDB will be halted. Polling again in 6300ms
Error: FT_Write returned: io error
Error: couldn't write MPSSE commands to FT2232
Polling target arc-em.cpu failed, GDB will be halted. Polling again in 6300ms
Error: FT_Write returned: io error
Error: couldn't write MPSSE commands to FT2232
Polling target arc-em.cpu failed, GDB will be halted. Polling again in 6300ms
Error: FT_Write returned: io error
Error: couldn't write MPSSE commands to FT2232
Polling target arc-em.cpu failed, GDB will be halted. Polling again in 6300ms
Error: FT_Write returned: io error
Error: couldn't write MPSSE commands to FT2232
Polling target arc-em.cpu failed, GDB will be halted. Polling again in 6300ms
Error: FT_Write returned: io error
Error: couldn't write MPSSE commands to FT2232
Polling target arc-em.cpu failed, GDB will be halted. Polling again in 6300ms
Error: FT_Write returned: io error
Error: couldn't write MPSSE commands to FT2232
Polling target arc-em.cpu failed, GDB will be halted. Polling again in 6300ms
Error: FT_Write returned: io error
Error: couldn't write MPSSE commands to FT2232
Polling target arc-em.cpu failed, GDB will be halted. Polling again in 6300ms
Error: FT_Write returned: io error
Error: couldn't write MPSSE commands to FT2232
Polling target arc-em.cpu failed, GDB will be halted. Polling again in 6300ms
Error: FT_Write returned: io error
Error: couldn't write MPSSE commands to FT2232
Polling target arc-em.cpu failed, GDB will be halted. Polling again in 6300ms
Error: FT_Write returned: io error
Error: couldn't write MPSSE commands to FT2232
Polling target arc-em.cpu failed, GDB will be halted. Polling again in 6300ms
Error: FT_Write returned: io error
Error: couldn't write MPSSE commands to FT2232
Polling target arc-em.cpu failed, GDB will be halted. Polling again in 6300ms
Error: FT_Write returned: io error
Error: couldn't write MPSSE commands to FT2232
Polling target arc-em.cpu failed, GDB will be halted. Polling again in 6300ms
Error: FT_Write returned: io error
Error: couldn't write MPSSE commands to FT2232
Polling target arc-em.cpu failed, GDB will be halted. Polling again in 6300ms
Error: FT_Write returned: io error
Error: couldn't write MPSSE commands to FT2232
Polling target arc-em.cpu failed, GDB will be halted. Polling again in 6300ms
Error: FT_Write returned: io error
Error: couldn't write MPSSE commands to FT2232
Polling target arc-em.cpu failed, GDB will be halted. Polling again in 6300ms
Error: FT_Write returned: io error
Error: couldn't write MPSSE commands to FT2232
Polling target arc-em.cpu failed, GDB will be halted. Polling again in 6300ms
Error: FT_Write returned: io error
Error: couldn't write MPSSE commands to FT2232
Polling target arc-em.cpu failed, GDB will be halted. Polling again in 6300ms
Error: FT_Write returned: io error
Error: couldn't write MPSSE commands to FT2232
Polling target arc-em.cpu failed, GDB will be halted. Polling again in 6300ms
Error: FT_Write returned: io error
Error: couldn't write MPSSE commands to FT2232
Polling target arc-em.cpu failed, GDB will be halted. Polling again in 6300ms
Error: FT_Write returned: io error
Error: couldn't write MPSSE commands to FT2232
Polling target arc-em.cpu failed, GDB will be halted. Polling again in 6300ms
Error: FT_Write returned: io error
Error: couldn't write MPSSE commands to FT2232
Polling target arc-em.cpu failed, GDB will be halted. Polling again in 6300ms
Error: FT_Write returned: io error
Error: couldn't write MPSSE commands to FT2232
Polling target arc-em.cpu failed, GDB will be halted. Polling again in 6300ms
Error: FT_Write returned: io error
Error: couldn't write MPSSE commands to FT2232
Polling target arc-em.cpu failed, GDB will be halted. Polling again in 6300ms
Error: FT_Write returned: io error
Error: couldn't write MPSSE commands to FT2232
Polling target arc-em.cpu failed, GDB will be halted. Polling again in 6300ms
Error: FT_Write returned: io error
Error: couldn't write MPSSE commands to FT2232
Polling target arc-em.cpu failed, GDB will be halted. Polling again in 6300ms
Error: FT_Write returned: io error
Error: couldn't write MPSSE commands to FT2232
Polling target arc-em.cpu failed, GDB will be halted. Polling again in 6300ms
Error: FT_Write returned: io error
Error: couldn't write MPSSE commands to FT2232
Polling target arc-em.cpu failed, GDB will be halted. Polling again in 6300ms
Error: FT_Write returned: io error
Error: couldn't write MPSSE commands to FT2232
Polling target arc-em.cpu failed, GDB will be halted. Polling again in 6300ms
Error: FT_Write returned: io error
Error: couldn't write MPSSE commands to FT2232
Polling target arc-em.cpu failed, GDB will be halted. Polling again in 6300ms
Error: FT_Write returned: io error
Error: couldn't write MPSSE commands to FT2232
Polling target arc-em.cpu failed, GDB will be halted. Polling again in 6300ms
Error: FT_Write returned: io error
Error: couldn't write MPSSE commands to FT2232
Polling target arc-em.cpu failed, GDB will be halted. Polling again in 6300ms
Error: FT_Write returned: io error
Error: couldn't write MPSSE commands to FT2232
Polling target arc-em.cpu failed, GDB will be halted. Polling again in 6300ms
Error: FT_Write returned: io error
Error: couldn't write MPSSE commands to FT2232
Polling target arc-em.cpu failed, GDB will be halted. Polling again in 6300ms
Error: FT_Write returned: io error
Error: couldn't write MPSSE commands to FT2232
Polling target arc-em.cpu failed, GDB will be halted. Polling again in 6300ms
Error: FT_Write returned: io error
Error: couldn't write MPSSE commands to FT2232
Polling target arc-em.cpu failed, GDB will be halted. Polling again in 6300ms
Error: FT_Write returned: io error
Error: couldn't write MPSSE commands to FT2232
Polling target arc-em.cpu failed, GDB will be halted. Polling again in 6300ms
Error: FT_Write returned: io error
Error: couldn't write MPSSE commands to FT2232
Polling target arc-em.cpu failed, GDB will be halted. Polling again in 6300ms
Error: FT_Write returned: io error
Error: couldn't write MPSSE commands to FT2232
Polling target arc-em.cpu failed, GDB will be halted. Polling again in 6300ms
Error: FT_Write returned: io error
Error: couldn't write MPSSE commands to FT2232
Polling target arc-em.cpu failed, GDB will be halted. Polling again in 6300ms
Error: FT_Write returned: io error
Error: couldn't write MPSSE commands to FT2232
Polling target arc-em.cpu failed, GDB will be halted. Polling again in 6300ms
Error: FT_Write returned: io error
Error: couldn't write MPSSE commands to FT2232
Polling target arc-em.cpu failed, GDB will be halted. Polling again in 6300ms
Error: FT_Write returned: io error
Error: couldn't write MPSSE commands to FT2232
Polling target arc-em.cpu failed, GDB will be halted. Polling again in 6300ms
Error: FT_Write returned: io error
Error: couldn't write MPSSE commands to FT2232
Polling target arc-em.cpu failed, GDB will be halted. Polling again in 6300ms
Error: FT_Write returned: io error
Error: couldn't write MPSSE commands to FT2232
Polling target arc-em.cpu failed, GDB will be halted. Polling again in 6300ms
Error: FT_Write returned: io error
Error: couldn't write MPSSE commands to FT2232
Polling target arc-em.cpu failed, GDB will be halted. Polling again in 6300ms
Error: FT_Write returned: io error
Error: couldn't write MPSSE commands to FT2232
Polling target arc-em.cpu failed, GDB will be halted. Polling again in 6300ms
Error: FT_Write returned: io error
Error: couldn't write MPSSE commands to FT2232
Polling target arc-em.cpu failed, GDB will be halted. Polling again in 6300ms
Error: FT_Write returned: io error
Error: couldn't write MPSSE commands to FT2232
Polling target arc-em.cpu failed, GDB will be halted. Polling again in 6300ms
Error: FT_Write returned: io error
Error: couldn't write MPSSE commands to FT2232
Polling target arc-em.cpu failed, GDB will be halted. Polling again in 6300ms
Error: FT_Write returned: io error
Error: couldn't write MPSSE commands to FT2232
Polling target arc-em.cpu failed, GDB will be halted. Polling again in 6300ms
Error: FT_Write returned: io error
Error: couldn't write MPSSE commands to FT2232
Polling target arc-em.cpu failed, GDB will be halted. Polling again in 6300ms
Error: FT_Write returned: io error
Error: couldn't write MPSSE commands to FT2232
Polling target arc-em.cpu failed, GDB will be halted. Polling again in 6300ms
Error: FT_Write returned: io error
Error: couldn't write MPSSE commands to FT2232
Polling target arc-em.cpu failed, GDB will be halted. Polling again in 6300ms
Error: FT_Write returned: io error
Error: couldn't write MPSSE commands to FT2232
Polling target arc-em.cpu failed, GDB will be halted. Polling again in 6300ms
Error: FT_Write returned: io error
Error: couldn't write MPSSE commands to FT2232
Polling target arc-em.cpu failed, GDB will be halted. Polling again in 6300ms
Error: FT_Write returned: io error
Error: couldn't write MPSSE commands to FT2232
Polling target arc-em.cpu failed, GDB will be halted. Polling again in 6300ms
Error: FT_Write returned: io error
Error: couldn't write MPSSE commands to FT2232
Polling target arc-em.cpu failed, GDB will be halted. Polling again in 6300ms
Error: FT_Write returned: io error
Error: couldn't write MPSSE commands to FT2232
Polling target arc-em.cpu failed, GDB will be halted. Polling again in 6300ms
Error: FT_Write returned: io error
Error: couldn't write MPSSE commands to FT2232
Polling target arc-em.cpu failed, GDB will be halted. Polling again in 6300ms
Error: FT_Write returned: io error
Error: couldn't write MPSSE commands to FT2232
Polling target arc-em.cpu failed, GDB will be halted. Polling again in 6300ms
Error: FT_Write returned: io error
Error: couldn't write MPSSE commands to FT2232
Polling target arc-em.cpu failed, GDB will be halted. Polling again in 6300ms
Error: FT_Write returned: io error
Error: couldn't write MPSSE commands to FT2232
Polling target arc-em.cpu failed, GDB will be halted. Polling again in 6300ms
Error: FT_Write returned: io error
Error: couldn't write MPSSE commands to FT2232
Polling target arc-em.cpu failed, GDB will be halted. Polling again in 6300ms
Error: FT_Write returned: io error
Error: couldn't write MPSSE commands to FT2232
Polling target arc-em.cpu failed, GDB will be halted. Polling again in 6300ms
Error: FT_Write returned: io error
Error: couldn't write MPSSE commands to FT2232
Polling target arc-em.cpu failed, GDB will be halted. Polling again in 6300ms
Error: FT_Write returned: io error
Error: couldn't write MPSSE commands to FT2232
Polling target arc-em.cpu failed, GDB will be halted. Polling again in 6300ms
Error: FT_Write returned: io error
Error: couldn't write MPSSE commands to FT2232
Polling target arc-em.cpu failed, GDB will be halted. Polling again in 6300ms
Error: FT_Write returned: io error
Error: couldn't write MPSSE commands to FT2232
Polling target arc-em.cpu failed, GDB will be halted. Polling again in 6300ms
Error: FT_Write returned: io error
Error: couldn't write MPSSE commands to FT2232
Polling target arc-em.cpu failed, GDB will be halted. Polling again in 6300ms
Error: FT_Write returned: io error
Error: couldn't write MPSSE commands to FT2232
Polling target arc-em.cpu failed, GDB will be halted. Polling again in 6300ms
Error: FT_Write returned: io error
Error: couldn't write MPSSE commands to FT2232
Polling target arc-em.cpu failed, GDB will be halted. Polling again in 6300ms
Error: FT_Write returned: io error
Error: couldn't write MPSSE commands to FT2232
Polling target arc-em.cpu failed, GDB will be halted. Polling again in 6300ms
Error: FT_Write returned: io error
Error: couldn't write MPSSE commands to FT2232
Polling target arc-em.cpu failed, GDB will be halted. Polling again in 6300ms
Error: FT_Write returned: io error
Error: couldn't write MPSSE commands to FT2232
Polling target arc-em.cpu failed, GDB will be halted. Polling again in 6300ms
Error: FT_Write returned: io error
Error: couldn't write MPSSE commands to FT2232
Polling target arc-em.cpu failed, GDB will be halted. Polling again in 6300ms
Error: FT_Write returned: io error
Error: couldn't write MPSSE commands to FT2232
Polling target arc-em.cpu failed, GDB will be halted. Polling again in 6300ms
Error: FT_Write returned: io error
Error: couldn't write MPSSE commands to FT2232
Polling target arc-em.cpu failed, GDB will be halted. Polling again in 6300ms
Error: FT_Write returned: io error
Error: couldn't write MPSSE commands to FT2232
Polling target arc-em.cpu failed, GDB will be halted. Polling again in 6300ms
Error: FT_Write returned: io error
Error: couldn't write MPSSE commands to FT2232
Polling target arc-em.cpu failed, GDB will be halted. Polling again in 6300ms
Error: FT_Write returned: io error
Error: couldn't write MPSSE commands to FT2232
Polling target arc-em.cpu failed, GDB will be halted. Polling again in 6300ms
Error: FT_Write returned: io error
Error: couldn't write MPSSE commands to FT2232
Polling target arc-em.cpu failed, GDB will be halted. Polling again in 6300ms
Error: FT_Write returned: io error
Error: couldn't write MPSSE commands to FT2232
Polling target arc-em.cpu failed, GDB will be halted. Polling again in 6300ms
Error: FT_Write returned: io error
Error: couldn't write MPSSE commands to FT2232
Polling target arc-em.cpu failed, GDB will be halted. Polling again in 6300ms
Error: FT_Write returned: io error
Error: couldn't write MPSSE commands to FT2232
Polling target arc-em.cpu failed, GDB will be halted. Polling again in 6300ms
Error: FT_Write returned: io error
Error: couldn't write MPSSE commands to FT2232
Polling target arc-em.cpu failed, GDB will be halted. Polling again in 6300ms
Error: FT_Write returned: io error
Error: couldn't write MPSSE commands to FT2232
Polling target arc-em.cpu failed, GDB will be halted. Polling again in 6300ms
Error: FT_Write returned: io error
Error: couldn't write MPSSE commands to FT2232
Polling target arc-em.cpu failed, GDB will be halted. Polling again in 6300ms
Error: FT_Write returned: io error
Error: couldn't write MPSSE commands to FT2232
Polling target arc-em.cpu failed, GDB will be halted. Polling again in 6300ms
Error: FT_Write returned: io error
Error: couldn't write MPSSE commands to FT2232
Polling target arc-em.cpu failed, GDB will be halted. Polling again in 6300ms
Error: FT_Write returned: io error
Error: couldn't write MPSSE commands to FT2232
Polling target arc-em.cpu failed, GDB will be halted. Polling again in 6300ms
Error: FT_Write returned: io error
Error: couldn't write MPSSE commands to FT2232
Polling target arc-em.cpu failed, GDB will be halted. Polling again in 6300ms
Error: FT_Write returned: io error
Error: couldn't write MPSSE commands to FT2232
Polling target arc-em.cpu failed, GDB will be halted. Polling again in 6300ms
Error: FT_Write returned: io error
Error: couldn't write MPSSE commands to FT2232
Polling target arc-em.cpu failed, GDB will be halted. Polling again in 6300ms
Error: FT_Write returned: io error
Error: couldn't write MPSSE commands to FT2232
Polling target arc-em.cpu failed, GDB will be halted. Polling again in 6300ms
Error: FT_Write returned: io error
Error: couldn't write MPSSE commands to FT2232
Polling target arc-em.cpu failed, GDB will be halted. Polling again in 6300ms
Error: FT_Write returned: io error
Error: couldn't write MPSSE commands to FT2232
Polling target arc-em.cpu failed, GDB will be halted. Polling again in 6300ms
Error: FT_Write returned: io error
Error: couldn't write MPSSE commands to FT2232
Polling target arc-em.cpu failed, GDB will be halted. Polling again in 6300ms
Error: FT_Write returned: io error
Error: couldn't write MPSSE commands to FT2232
Polling target arc-em.cpu failed, GDB will be halted. Polling again in 6300ms
Error: FT_Write returned: io error
Error: couldn't write MPSSE commands to FT2232
Polling target arc-em.cpu failed, GDB will be halted. Polling again in 6300ms
Error: FT_Write returned: io error
Error: couldn't write MPSSE commands to FT2232
Polling target arc-em.cpu failed, GDB will be halted. Polling again in 6300ms
Error: FT_Write returned: io error
Error: couldn't write MPSSE commands to FT2232
Polling target arc-em.cpu failed, GDB will be halted. Polling again in 6300ms
Error: FT_Write returned: io error
Error: couldn't write MPSSE commands to FT2232
Polling target arc-em.cpu failed, GDB will be halted. Polling again in 6300ms
Error: FT_Write returned: io error
Error: couldn't write MPSSE commands to FT2232
Polling target arc-em.cpu failed, GDB will be halted. Polling again in 6300ms
Error: FT_Write returned: io error
Error: couldn't write MPSSE commands to FT2232
Polling target arc-em.cpu failed, GDB will be halted. Polling again in 6300ms
Error: FT_Write returned: io error
Error: couldn't write MPSSE commands to FT2232
Polling target arc-em.cpu failed, GDB will be halted. Polling again in 6300ms
Error: FT_Write returned: io error
Error: couldn't write MPSSE commands to FT2232
Polling target arc-em.cpu failed, GDB will be halted. Polling again in 6300ms
Error: FT_Write returned: io error
Error: couldn't write MPSSE commands to FT2232
Polling target arc-em.cpu failed, GDB will be halted. Polling again in 6300ms
Error: FT_Write returned: io error
Error: couldn't write MPSSE commands to FT2232
Polling target arc-em.cpu failed, GDB will be halted. Polling again in 6300ms
Error: FT_Write returned: io error
Error: couldn't write MPSSE commands to FT2232
Polling target arc-em.cpu failed, GDB will be halted. Polling again in 6300ms
Error: FT_Write returned: io error
Error: couldn't write MPSSE commands to FT2232
Polling target arc-em.cpu failed, GDB will be halted. Polling again in 6300ms
Error: FT_Write returned: io error
Error: couldn't write MPSSE commands to FT2232
Polling target arc-em.cpu failed, GDB will be halted. Polling again in 6300ms
Error: FT_Write returned: io error
Error: couldn't write MPSSE commands to FT2232
Polling target arc-em.cpu failed, GDB will be halted. Polling again in 6300ms
Error: FT_Write returned: io error
Error: couldn't write MPSSE commands to FT2232
Polling target arc-em.cpu failed, GDB will be halted. Polling again in 6300ms
Error: FT_Write returned: io error
Error: couldn't write MPSSE commands to FT2232
Polling target arc-em.cpu failed, GDB will be halted. Polling again in 6300ms
Error: FT_Write returned: io error
Error: couldn't write MPSSE commands to FT2232
Polling target arc-em.cpu failed, GDB will be halted. Polling again in 6300ms
Error: FT_Write returned: io error
Error: couldn't write MPSSE commands to FT2232
Polling target arc-em.cpu failed, GDB will be halted. Polling again in 6300ms
Error: FT_Write returned: io error
Error: couldn't write MPSSE commands to FT2232
Polling target arc-em.cpu failed, GDB will be halted. Polling again in 6300ms
Error: FT_Write returned: io error
Error: couldn't write MPSSE commands to FT2232
Polling target arc-em.cpu failed, GDB will be halted. Polling again in 6300ms
Error: FT_Write returned: io error
Error: couldn't write MPSSE commands to FT2232
Polling target arc-em.cpu failed, GDB will be halted. Polling again in 6300ms
Error: FT_Write returned: io error
Error: couldn't write MPSSE commands to FT2232
Polling target arc-em.cpu failed, GDB will be halted. Polling again in 6300ms
Error: FT_Write returned: io error
Error: couldn't write MPSSE commands to FT2232
Polling target arc-em.cpu failed, GDB will be halted. Polling again in 6300ms
Error: FT_Write returned: io error
Error: couldn't write MPSSE commands to FT2232
Polling target arc-em.cpu failed, GDB will be halted. Polling again in 6300ms
Error: FT_Write returned: io error
Error: couldn't write MPSSE commands to FT2232
Polling target arc-em.cpu failed, GDB will be halted. Polling again in 6300ms
Error: FT_Write returned: io error
Error: couldn't write MPSSE commands to FT2232
Polling target arc-em.cpu failed, GDB will be halted. Polling again in 6300ms
Error: FT_Write returned: io error
Error: couldn't write MPSSE commands to FT2232
Polling target arc-em.cpu failed, GDB will be halted. Polling again in 6300ms
Error: FT_Write returned: io error
Error: couldn't write MPSSE commands to FT2232
Polling target arc-em.cpu failed, GDB will be halted. Polling again in 6300ms
Error: FT_Write returned: io error
Error: couldn't write MPSSE commands to FT2232
Polling target arc-em.cpu failed, GDB will be halted. Polling again in 6300ms
Error: FT_Write returned: io error
Error: couldn't write MPSSE commands to FT2232
Polling target arc-em.cpu failed, GDB will be halted. Polling again in 6300ms
Error: FT_Write returned: io error
Error: couldn't write MPSSE commands to FT2232
Polling target arc-em.cpu failed, GDB will be halted. Polling again in 6300ms
Error: FT_Write returned: io error
Error: couldn't write MPSSE commands to FT2232
Polling target arc-em.cpu failed, GDB will be halted. Polling again in 6300ms
Error: FT_Write returned: io error
Error: couldn't write MPSSE commands to FT2232
Polling target arc-em.cpu failed, GDB will be halted. Polling again in 6300ms
Error: FT_Write returned: io error
Error: couldn't write MPSSE commands to FT2232
Polling target arc-em.cpu failed, GDB will be halted. Polling again in 6300ms
Error: FT_Write returned: io error
Error: couldn't write MPSSE commands to FT2232
Polling target arc-em.cpu failed, GDB will be halted. Polling again in 6300ms
Error: FT_Write returned: io error
Error: couldn't write MPSSE commands to FT2232
Polling target arc-em.cpu failed, GDB will be halted. Polling again in 6300ms
Error: FT_Write returned: io error
Error: couldn't write MPSSE commands to FT2232
Polling target arc-em.cpu failed, GDB will be halted. Polling again in 6300ms
Error: FT_Write returned: io error
Error: couldn't write MPSSE commands to FT2232
Polling target arc-em.cpu failed, GDB will be halted. Polling again in 6300ms
Error: FT_Write returned: io error
Error: couldn't write MPSSE commands to FT2232
Polling target arc-em.cpu failed, GDB will be halted. Polling again in 6300ms
Error: FT_Write returned: io error
Error: couldn't write MPSSE commands to FT2232
Polling target arc-em.cpu failed, GDB will be halted. Polling again in 6300ms
Error: FT_Write returned: io error
Error: couldn't write MPSSE commands to FT2232
Polling target arc-em.cpu failed, GDB will be halted. Polling again in 6300ms
Error: FT_Write returned: io error
Error: couldn't write MPSSE commands to FT2232
Polling target arc-em.cpu failed, GDB will be halted. Polling again in 6300ms
Error: FT_Write returned: io error
Error: couldn't write MPSSE commands to FT2232
Polling target arc-em.cpu failed, GDB will be halted. Polling again in 6300ms
Error: FT_Write returned: io error
Error: couldn't write MPSSE commands to FT2232
Polling target arc-em.cpu failed, GDB will be halted. Polling again in 6300ms
Error: FT_Write returned: io error
Error: couldn't write MPSSE commands to FT2232
Polling target arc-em.cpu failed, GDB will be halted. Polling again in 6300ms
Error: FT_Write returned: io error
Error: couldn't write MPSSE commands to FT2232
Polling target arc-em.cpu failed, GDB will be halted. Polling again in 6300ms
Error: FT_Write returned: io error
Error: couldn't write MPSSE commands to FT2232
Polling target arc-em.cpu failed, GDB will be halted. Polling again in 6300ms
Error: FT_Write returned: io error
Error: couldn't write MPSSE commands to FT2232
Polling target arc-em.cpu failed, GDB will be halted. Polling again in 6300ms
Error: FT_Write returned: io error
Error: couldn't write MPSSE commands to FT2232
Polling target arc-em.cpu failed, GDB will be halted. Polling again in 6300ms
Error: FT_Write returned: io error
Error: couldn't write MPSSE commands to FT2232
Polling target arc-em.cpu failed, GDB will be halted. Polling again in 6300ms
Error: FT_Write returned: io error
Error: couldn't write MPSSE commands to FT2232
Polling target arc-em.cpu failed, GDB will be halted. Polling again in 6300ms
Error: FT_Write returned: io error
Error: couldn't write MPSSE commands to FT2232
Polling target arc-em.cpu failed, GDB will be halted. Polling again in 6300ms
Error: FT_Write returned: io error
Error: couldn't write MPSSE commands to FT2232
Polling target arc-em.cpu failed, GDB will be halted. Polling again in 6300ms
Error: FT_Write returned: io error
Error: couldn't write MPSSE commands to FT2232
Polling target arc-em.cpu failed, GDB will be halted. Polling again in 6300ms
Error: FT_Write returned: io error
Error: couldn't write MPSSE commands to FT2232
Polling target arc-em.cpu failed, GDB will be halted. Polling again in 6300ms
Error: FT_Write returned: io error
Error: couldn't write MPSSE commands to FT2232
Polling target arc-em.cpu failed, GDB will be halted. Polling again in 6300ms
Error: FT_Write returned: io error
Error: couldn't write MPSSE commands to FT2232
Polling target arc-em.cpu failed, GDB will be halted. Polling again in 6300ms
Error: FT_Write returned: io error
Error: couldn't write MPSSE commands to FT2232
Polling target arc-em.cpu failed, GDB will be halted. Polling again in 6300ms
Error: FT_Write returned: io error
Error: couldn't write MPSSE commands to FT2232
Polling target arc-em.cpu failed, GDB will be halted. Polling again in 6300ms
Error: FT_Write returned: io error
[...]
Error: couldn't write MPSSE commands to FT2232
Polling target arc-em.cpu failed, GDB will be halted. Polling again in 6300ms
Error: FT_Write returned: io error
Error: couldn't write MPSSE commands to FT2232
Polling target arc-em.cpu failed, GDB will be halted. Polling again in 6300ms
Error: FT_Write returned: io error
Error: couldn't write MPSSE commands to FT2232
Polling target arc-em.cpu failed, GDB will be halted. Polling again in 6300ms
Error: FT_Write returned: io error
Error: couldn't write MPSSE commands to FT2232
Polling target arc-em.cpu failed, GDB will be halted. Polling again in 6300ms
Error: FT_Write returned: io error
Error: couldn't write MPSSE commands to FT2232
Polling target arc-em.cpu failed, GDB will be halted. Polling again in 6300ms
Error: FT_Write returned: io error
Error: couldn't write MPSSE commands to FT2232
Polling target arc-em.cpu failed, GDB will be halted. Polling again in 6300ms
Error: FT_Write returned: io error
Error: couldn't write MPSSE commands to FT2232
Polling target arc-em.cpu failed, GDB will be halted. Polling again in 6300ms
Error: FT_Write returned: io error
Error: couldn't write MPSSE commands to FT2232
Polling target arc-em.cpu failed, GDB will be halted. Polling again in 6300ms
Error: FT_Write returned: io error
Error: couldn't write MPSSE commands to FT2232
Polling target arc-em.cpu failed, GDB will be halted. Polling again in 6300ms
Error: FT_Write returned: io error
Error: couldn't write MPSSE commands to FT2232
Polling target arc-em.cpu failed, GDB will be halted. Polling again in 6300ms
Error: FT_Write returned: io error
Error: couldn't write MPSSE commands to FT2232
Polling target arc-em.cpu failed, GDB will be halted. Polling again in 6300ms
Error: FT_Write returned: io error
Error: couldn't write MPSSE commands to FT2232
Polling target arc-em.cpu failed, GDB will be halted. Polling again in 6300ms
Error: FT_Write returned: io error
Error: couldn't write MPSSE commands to FT2232
Polling target arc-em.cpu failed, GDB will be halted. Polling again in 6300ms
Error: FT_Write returned: io error
Error: couldn't write MPSSE commands to FT2232
Polling target arc-em.cpu failed, GDB will be halted. Polling again in 6300ms
Error: FT_Write returned: io error
Error: couldn't write MPSSE commands to FT2232
Polling target arc-em.cpu failed, GDB will be halted. Polling again in 6300ms
Error: FT_Write returned: io error
Error: couldn't write MPSSE commands to FT2232
Polling target arc-em.cpu failed, GDB will be halted. Polling again in 6300ms
Error: FT_Write returned: io error
Error: couldn't write MPSSE commands to FT2232
Polling target arc-em.cpu failed, GDB will be halted. Polling again in 6300ms
Error: FT_Write returned: io error
Error: couldn't write MPSSE commands to FT2232
Polling target arc-em.cpu failed, GDB will be halted. Polling again in 6300ms
Error: FT_Write returned: io error
Error: couldn't write MPSSE commands to FT2232
Polling target arc-em.cpu failed, GDB will be halted. Polling again in 6300ms
Error: FT_Write returned: io error
Error: couldn't write MPSSE commands to FT2232
Polling target arc-em.cpu failed, GDB will be halted. Polling again in 6300ms
Error: FT_Write returned: io error
Error: couldn't write MPSSE commands to FT2232
Polling target arc-em.cpu failed, GDB will be halted. Polling again in 6300ms
Error: FT_Write returned: io error
Error: couldn't write MPSSE commands to FT2232
Polling target arc-em.cpu failed, GDB will be halted. Polling again in 6300ms
Error: FT_Write returned: io error
Error: couldn't write MPSSE commands to FT2232
Polling target arc-em.cpu failed, GDB will be halted. Polling again in 6300ms
Error: FT_Write returned: io error
Error: couldn't write MPSSE commands to FT2232
Polling target arc-em.cpu failed, GDB will be halted. Polling again in 6300ms
Error: FT_Write returned: io error
Error: couldn't write MPSSE commands to FT2232
Polling target arc-em.cpu failed, GDB will be halted. Polling again in 6300ms
Error: FT_Write returned: io error
Error: couldn't write MPSSE commands to FT2232
Polling target arc-em.cpu failed, GDB will be halted. Polling again in 6300ms
Error: FT_Write returned: io error
Error: couldn't write MPSSE commands to FT2232
Polling target arc-em.cpu failed, GDB will be halted. Polling again in 6300ms
Error: FT_Write returned: io error
Error: couldn't write MPSSE commands to FT2232
Polling target arc-em.cpu failed, GDB will be halted. Polling again in 6300ms
Error: FT_Write returned: io error
Error: couldn't write MPSSE commands to FT2232
Polling target arc-em.cpu failed, GDB will be halted. Polling again in 6300ms
Error: FT_Write returned: io error
Error: couldn't write MPSSE commands to FT2232
Polling target arc-em.cpu failed, GDB will be halted. Polling again in 6300ms
Error: FT_Write returned: io error
Error: couldn't write MPSSE commands to FT2232
Polling target arc-em.cpu failed, GDB will be halted. Polling again in 6300ms
Error: FT_Write returned: io error
Error: couldn't write MPSSE commands to FT2232
Polling target arc-em.cpu failed, GDB will be halted. Polling again in 6300ms
Error: FT_Write returned: io error
Error: couldn't write MPSSE commands to FT2232
Polling target arc-em.cpu failed, GDB will be halted. Polling again in 6300ms
Error: FT_Write returned: io error
Error: couldn't write MPSSE commands to FT2232
Polling target arc-em.cpu failed, GDB will be halted. Polling again in 6300ms
Error: FT_Write returned: io error
Error: couldn't write MPSSE commands to FT2232
Polling target arc-em.cpu failed, GDB will be halted. Polling again in 6300ms
Error: FT_Write returned: io error
Error: couldn't write MPSSE commands to FT2232
Polling target arc-em.cpu failed, GDB will be halted. Polling again in 6300ms
Error: FT_Write returned: io error
Error: couldn't write MPSSE commands to FT2232
Polling target arc-em.cpu failed, GDB will be halted. Polling again in 6300ms
Error: FT_Write returned: io error
Error: couldn't write MPSSE commands to FT2232
Polling target arc-em.cpu failed, GDB will be halted. Polling again in 6300ms
Error: FT_Write returned: io error
Error: couldn't write MPSSE commands to FT2232
Polling target arc-em.cpu failed, GDB will be halted. Polling again in 6300ms
Error: FT_Write returned: io error
Error: couldn't write MPSSE commands to FT2232
Polling target arc-em.cpu failed, GDB will be halted. Polling again in 6300ms
Error: FT_Write returned: io error
Error: couldn't write MPSSE commands to FT2232
Polling target arc-em.cpu failed, GDB will be halted. Polling again in 6300ms
Error: FT_Write returned: io error
Error: couldn't write MPSSE commands to FT2232
Polling target arc-em.cpu failed, GDB will be halted. Polling again in 6300ms
Error: FT_Write returned: io error
Error: couldn't write MPSSE commands to FT2232
Polling target arc-em.cpu failed, GDB will be halted. Polling again in 6300ms
Error: FT_Write returned: io error
Error: couldn't write MPSSE commands to FT2232
Polling target arc-em.cpu failed, GDB will be halted. Polling again in 6300ms
Error: FT_Write returned: io error
Error: couldn't write MPSSE commands to FT2232
Polling target arc-em.cpu failed, GDB will be halted. Polling again in 6300ms
Error: FT_Write returned: io error
Error: couldn't write MPSSE commands to FT2232
Polling target arc-em.cpu failed, GDB will be halted. Polling again in 6300ms
Error: FT_Write returned: io error
Error: couldn't write MPSSE commands to FT2232
Polling target arc-em.cpu failed, GDB will be halted. Polling again in 6300ms
Error: FT_Write returned: io error
Error: couldn't write MPSSE commands to FT2232
Polling target arc-em.cpu failed, GDB will be halted. Polling again in 6300ms
Error: FT_Write returned: io error
Error: couldn't write MPSSE commands to FT2232
Polling target arc-em.cpu failed, GDB will be halted. Polling again in 6300ms
Error: FT_Write returned: io error
Error: couldn't write MPSSE commands to FT2232
Polling target arc-em.cpu failed, GDB will be halted. Polling again in 6300ms
Error: FT_Write returned: io error
Error: couldn't write MPSSE commands to FT2232
Polling target arc-em.cpu failed, GDB will be halted. Polling again in 6300ms
Error: FT_Write returned: io error
Error: couldn't write MPSSE commands to FT2232
Polling target arc-em.cpu failed, GDB will be halted. Polling again in 6300ms
Error: FT_Write returned: io error
Error: couldn't write MPSSE commands to FT2232
Polling target arc-em.cpu failed, GDB will be halted. Polling again in 6300ms
Error: FT_Write returned: io error
Error: couldn't write MPSSE commands to FT2232
Polling target arc-em.cpu failed, GDB will be halted. Polling again in 6300ms
Error: FT_Write returned: io error
Error: couldn't write MPSSE commands to FT2232
Polling target arc-em.cpu failed, GDB will be halted. Polling again in 6300ms
Error: FT_Write returned: io error
Error: couldn't write MPSSE commands to FT2232
Polling target arc-em.cpu failed, GDB will be halted. Polling again in 6300ms
Error: FT_Write returned: io error
Error: couldn't write MPSSE commands to FT2232
Polling target arc-em.cpu failed, GDB will be halted. Polling again in 6300ms
Error: FT_Write returned: io error
Error: couldn't write MPSSE commands to FT2232
Polling target arc-em.cpu failed, GDB will be halted. Polling again in 6300ms
Error: FT_Write returned: io error
Error: couldn't write MPSSE commands to FT2232
Polling target arc-em.cpu failed, GDB will be halted. Polling again in 6300ms
Error: FT_Write returned: io error
Error: couldn't write MPSSE commands to FT2232
Polling target arc-em.cpu failed, GDB will be halted. Polling again in 6300ms
Error: FT_Write returned: io error
Error: couldn't write MPSSE commands to FT2232
Polling target arc-em.cpu failed, GDB will be halted. Polling again in 6300ms
Error: FT_Write returned: io error
Error: couldn't write MPSSE commands to FT2232
Polling target arc-em.cpu failed, GDB will be halted. Polling again in 6300ms
Error: FT_Write returned: io error
Error: couldn't write MPSSE commands to FT2232
Polling target arc-em.cpu failed, GDB will be halted. Polling again in 6300ms
Error: FT_Write returned: io error
Error: couldn't write MPSSE commands to FT2232
Polling target arc-em.cpu failed, GDB will be halted. Polling again in 6300ms
Error: FT_Write returned: io error
Error: couldn't write MPSSE commands to FT2232
Polling target arc-em.cpu failed, GDB will be halted. Polling again in 6300ms
Error: FT_Write returned: io error
Error: couldn't write MPSSE commands to FT2232
Polling target arc-em.cpu failed, GDB will be halted. Polling again in 6300ms
Error: FT_Write returned: io error
Error: couldn't write MPSSE commands to FT2232
Polling target arc-em.cpu failed, GDB will be halted. Polling again in 6300ms
Error: FT_Write returned: io error
Error: couldn't write MPSSE commands to FT2232
Polling target arc-em.cpu failed, GDB will be halted. Polling again in 6300ms
Error: FT_Write returned: io error
Error: couldn't write MPSSE commands to FT2232
Polling target arc-em.cpu failed, GDB will be halted. Polling again in 6300ms
Error: FT_Write returned: io error
Error: couldn't write MPSSE commands to FT2232
Polling target arc-em.cpu failed, GDB will be halted. Polling again in 6300ms
Error: FT_Write returned: io error
Error: couldn't write MPSSE commands to FT2232
Polling target arc-em.cpu failed, GDB will be halted. Polling again in 6300ms
Error: FT_Write returned: io error
Error: couldn't write MPSSE commands to FT2232
Polling target arc-em.cpu failed, GDB will be halted. Polling again in 6300ms
Error: FT_Write returned: io error
Error: couldn't write MPSSE commands to FT2232
Polling target arc-em.cpu failed, GDB will be halted. Polling again in 6300ms
Error: FT_Write returned: io error
Error: couldn't write MPSSE commands to FT2232
Polling target arc-em.cpu failed, GDB will be halted. Polling again in 6300ms
Error: FT_Write returned: io error
Error: couldn't write MPSSE commands to FT2232
Polling target arc-em.cpu failed, GDB will be halted. Polling again in 6300ms
Error: FT_Write returned: io error
Error: couldn't write MPSSE commands to FT2232
Polling target arc-em.cpu failed, GDB will be halted. Polling again in 6300ms
Error: FT_Write returned: io error
Error: couldn't write MPSSE commands to FT2232
Polling target arc-em.cpu failed, GDB will be halted. Polling again in 6300ms
Error: FT_Write returned: io error
Error: couldn't write MPSSE commands to FT2232
Polling target arc-em.cpu failed, GDB will be halted. Polling again in 6300ms
Error: FT_Write returned: io error
Error: couldn't write MPSSE commands to FT2232
Polling target arc-em.cpu failed, GDB will be halted. Polling again in 6300ms
Error: FT_Write returned: io error
Error: couldn't write MPSSE commands to FT2232
Polling target arc-em.cpu failed, GDB will be halted. Polling again in 6300ms
Error: FT_Write returned: io error
Error: couldn't write MPSSE commands to FT2232
Polling target arc-em.cpu failed, GDB will be halted. Polling again in 6300ms
Error: FT_Write returned: io error
Error: couldn't write MPSSE commands to FT2232
Polling target arc-em.cpu failed, GDB will be halted. Polling again in 6300ms
Error: FT_Write returned: io error
Error: couldn't write MPSSE commands to FT2232
Polling target arc-em.cpu failed, GDB will be halted. Polling again in 6300ms
Error: FT_Write returned: io error
Error: couldn't write MPSSE commands to FT2232
Polling target arc-em.cpu failed, GDB will be halted. Polling again in 6300ms
Error: FT_Write returned: io error
Error: couldn't write MPSSE commands to FT2232
Polling target arc-em.cpu failed, GDB will be halted. Polling again in 6300ms
Error: FT_Write returned: io error
Error: couldn't write MPSSE commands to FT2232
Polling target arc-em.cpu failed, GDB will be halted. Polling again in 6300ms
Error: FT_Write returned: io error
Error: couldn't write MPSSE commands to FT2232
Polling target arc-em.cpu failed, GDB will be halted. Polling again in 6300ms
Error: FT_Write returned: io error
Error: couldn't write MPSSE commands to FT2232
Polling target arc-em.cpu failed, GDB will be halted. Polling again in 6300ms
Error: FT_Write returned: io error
Error: couldn't write MPSSE commands to FT2232
Polling target arc-em.cpu failed, GDB will be halted. Polling again in 6300ms
Error: FT_Write returned: io error
Error: couldn't write MPSSE commands to FT2232
Polling target arc-em.cpu failed, GDB will be halted. Polling again in 6300ms
Error: FT_Write returned: io error
Error: couldn't write MPSSE commands to FT2232
Polling target arc-em.cpu failed, GDB will be halted. Polling again in 6300ms
Error: FT_Write returned: io error
Error: couldn't write MPSSE commands to FT2232
Polling target arc-em.cpu failed, GDB will be halted. Polling again in 6300ms
Error: FT_Write returned: io error
Error: couldn't write MPSSE commands to FT2232
Polling target arc-em.cpu failed, GDB will be halted. Polling again in 6300ms
Error: FT_Write returned: io error
Error: couldn't write MPSSE commands to FT2232
Polling target arc-em.cpu failed, GDB will be halted. Polling again in 6300ms
Error: FT_Write returned: io error
Error: couldn't write MPSSE commands to FT2232
Polling target arc-em.cpu failed, GDB will be halted. Polling again in 6300ms
Error: FT_Write returned: io error
Error: couldn't write MPSSE commands to FT2232
Polling target arc-em.cpu failed, GDB will be halted. Polling again in 6300ms
Error: FT_Write returned: io error
Error: couldn't write MPSSE commands to FT2232
Polling target arc-em.cpu failed, GDB will be halted. Polling again in 6300ms
Error: FT_Write returned: io error
Error: couldn't write MPSSE commands to FT2232
Polling target arc-em.cpu failed, GDB will be halted. Polling again in 6300ms
Error: FT_Write returned: io error
Error: couldn't write MPSSE commands to FT2232
Polling target arc-em.cpu failed, GDB will be halted. Polling again in 6300ms
Error: FT_Write returned: io error
Error: couldn't write MPSSE commands to FT2232
Polling target arc-em.cpu failed, GDB will be halted. Polling again in 6300ms
Error: FT_Write returned: io error
Error: couldn't write MPSSE commands to FT2232
Polling target arc-em.cpu failed, GDB will be halted. Polling again in 6300ms
Error: FT_Write returned: io error
Error: couldn't write MPSSE commands to FT2232
Polling target arc-em.cpu failed, GDB will be halted. Polling again in 6300ms
Error: FT_Write returned: io error
Error: couldn't write MPSSE commands to FT2232
Polling target arc-em.cpu failed, GDB will be halted. Polling again in 6300ms
Error: FT_Write returned: io error
Error: couldn't write MPSSE commands to FT2232
Polling target arc-em.cpu failed, GDB will be halted. Polling again in 6300ms
Error: FT_Write returned: io error
Error: couldn't write MPSSE commands to FT2232
Polling target arc-em.cpu failed, GDB will be halted. Polling again in 6300ms
Error: FT_Write returned: io error
Error: couldn't write MPSSE commands to FT2232
Polling target arc-em.cpu failed, GDB will be halted. Polling again in 6300ms
Error: FT_Write returned: io error
Error: couldn't write MPSSE commands to FT2232
Polling target arc-em.cpu failed, GDB will be halted. Polling again in 6300ms
Error: FT_Write returned: io error
Error: couldn't write MPSSE commands to FT2232
Polling target arc-em.cpu failed, GDB will be halted. Polling again in 6300ms
Error: FT_Write returned: io error
Error: couldn't write MPSSE commands to FT2232
Polling target arc-em.cpu failed, GDB will be halted. Polling again in 6300ms
Error: FT_Write returned: io error
Error: couldn't write MPSSE commands to FT2232
Polling target arc-em.cpu failed, GDB will be halted. Polling again in 6300ms
Error: FT_Write returned: io error
Error: couldn't write MPSSE commands to FT2232
Polling target arc-em.cpu failed, GDB will be halted. Polling again in 6300ms
Error: FT_Write returned: io error
Error: couldn't write MPSSE commands to FT2232
Polling target arc-em.cpu failed, GDB will be halted. Polling again in 6300ms
Error: FT_Write returned: io error
Error: couldn't write MPSSE commands to FT2232
Polling target arc-em.cpu failed, GDB will be halted. Polling again in 6300ms
Error: FT_Write returned: io error
Error: couldn't write MPSSE commands to FT2232
Polling target arc-em.cpu failed, GDB will be halted. Polling again in 6300ms
Error: FT_Write returned: io error
Error: couldn't write MPSSE commands to FT2232
Polling target arc-em.cpu failed, GDB will be halted. Polling again in 6300ms
Error: FT_Write returned: io error
Error: couldn't write MPSSE commands to FT2232
Polling target arc-em.cpu failed, GDB will be halted. Polling again in 6300ms
Error: FT_Write returned: io error
Error: couldn't write MPSSE commands to FT2232
Polling target arc-em.cpu failed, GDB will be halted. Polling again in 6300ms
Error: FT_Write returned: io error
Error: couldn't write MPSSE commands to FT2232
Polling target arc-em.cpu failed, GDB will be halted. Polling again in 6300ms
Error: FT_Write returned: io error
Error: couldn't write MPSSE commands to FT2232
Polling target arc-em.cpu failed, GDB will be halted. Polling again in 6300ms
Error: FT_Write returned: io error
Error: couldn't write MPSSE commands to FT2232
Polling target arc-em.cpu failed, GDB will be halted. Polling again in 6300ms
Error: FT_Write returned: io error
Error: couldn't write MPSSE commands to FT2232
Polling target arc-em.cpu failed, GDB will be halted. Polling again in 6300ms
Error: FT_Write returned: io error
Error: couldn't write MPSSE commands to FT2232
Polling target arc-em.cpu failed, GDB will be halted. Polling again in 6300ms
Error: FT_Write returned: io error
Error: couldn't write MPSSE commands to FT2232
Polling target arc-em.cpu failed, GDB will be halted. Polling again in 6300ms
Error: FT_Write returned: io error
Error: couldn't write MPSSE commands to FT2232
Polling target arc-em.cpu failed, GDB will be halted. Polling again in 6300ms
Error: FT_Write returned: io error
Error: couldn't write MPSSE commands to FT2232
Polling target arc-em.cpu failed, GDB will be halted. Polling again in 6300ms
